* NGSPICE file created from tholin_avalonsemi_tbb1143.ext - technology: sky130B

* Black-box entry subcircuit for sky130_fd_sc_hd__tapvpwrvgnd_1 abstract view
.subckt sky130_fd_sc_hd__tapvpwrvgnd_1 VGND VPWR
.ends

* Black-box entry subcircuit for sky130_fd_sc_hd__decap_4 abstract view
.subckt sky130_fd_sc_hd__decap_4 VGND VNB VPB VPWR
.ends

* Black-box entry subcircuit for sky130_fd_sc_hd__xor2_2 abstract view
.subckt sky130_fd_sc_hd__xor2_2 A B VGND VNB VPB VPWR X
.ends

* Black-box entry subcircuit for sky130_fd_sc_hd__fill_1 abstract view
.subckt sky130_fd_sc_hd__fill_1 VGND VNB VPB VPWR
.ends

* Black-box entry subcircuit for sky130_fd_sc_hd__buf_1 abstract view
.subckt sky130_fd_sc_hd__buf_1 A VGND VNB VPB VPWR X
.ends

* Black-box entry subcircuit for sky130_fd_sc_hd__decap_8 abstract view
.subckt sky130_fd_sc_hd__decap_8 VGND VNB VPB VPWR
.ends

* Black-box entry subcircuit for sky130_fd_sc_hd__fill_2 abstract view
.subckt sky130_fd_sc_hd__fill_2 VGND VNB VPB VPWR
.ends

* Black-box entry subcircuit for sky130_fd_sc_hd__decap_6 abstract view
.subckt sky130_fd_sc_hd__decap_6 VGND VNB VPB VPWR
.ends

* Black-box entry subcircuit for sky130_ef_sc_hd__decap_12 abstract view
.subckt sky130_ef_sc_hd__decap_12 VGND VNB VPB VPWR
.ends

* Black-box entry subcircuit for sky130_fd_sc_hd__or4_1 abstract view
.subckt sky130_fd_sc_hd__or4_1 A B C D VGND VNB VPB VPWR X
.ends

* Black-box entry subcircuit for sky130_fd_sc_hd__diode_2 abstract view
.subckt sky130_fd_sc_hd__diode_2 DIODE VGND VNB VPB VPWR
.ends

* Black-box entry subcircuit for sky130_fd_sc_hd__dfrtp_1 abstract view
.subckt sky130_fd_sc_hd__dfrtp_1 CLK D RESET_B VGND VNB VPB VPWR Q
.ends

* Black-box entry subcircuit for sky130_fd_sc_hd__clkbuf_1 abstract view
.subckt sky130_fd_sc_hd__clkbuf_1 A VGND VNB VPB VPWR X
.ends

* Black-box entry subcircuit for sky130_fd_sc_hd__dfrtp_2 abstract view
.subckt sky130_fd_sc_hd__dfrtp_2 CLK D RESET_B VGND VNB VPB VPWR Q
.ends

* Black-box entry subcircuit for sky130_fd_sc_hd__mux2_1 abstract view
.subckt sky130_fd_sc_hd__mux2_1 A0 A1 S VGND VNB VPB VPWR X
.ends

* Black-box entry subcircuit for sky130_fd_sc_hd__nand2_1 abstract view
.subckt sky130_fd_sc_hd__nand2_1 A B VGND VNB VPB VPWR Y
.ends

* Black-box entry subcircuit for sky130_fd_sc_hd__clkinv_2 abstract view
.subckt sky130_fd_sc_hd__clkinv_2 A VGND VNB VPB VPWR Y
.ends

* Black-box entry subcircuit for sky130_fd_sc_hd__decap_3 abstract view
.subckt sky130_fd_sc_hd__decap_3 VGND VNB VPB VPWR
.ends

* Black-box entry subcircuit for sky130_fd_sc_hd__o21a_1 abstract view
.subckt sky130_fd_sc_hd__o21a_1 A1 A2 B1 VGND VNB VPB VPWR X
.ends

* Black-box entry subcircuit for sky130_fd_sc_hd__o32a_2 abstract view
.subckt sky130_fd_sc_hd__o32a_2 A1 A2 A3 B1 B2 VGND VNB VPB VPWR X
.ends

* Black-box entry subcircuit for sky130_fd_sc_hd__and4_2 abstract view
.subckt sky130_fd_sc_hd__and4_2 A B C D VGND VNB VPB VPWR X
.ends

* Black-box entry subcircuit for sky130_fd_sc_hd__clkbuf_16 abstract view
.subckt sky130_fd_sc_hd__clkbuf_16 A VGND VNB VPB VPWR X
.ends

* Black-box entry subcircuit for sky130_fd_sc_hd__xor2_1 abstract view
.subckt sky130_fd_sc_hd__xor2_1 A B VGND VNB VPB VPWR X
.ends

* Black-box entry subcircuit for sky130_fd_sc_hd__dfxtp_1 abstract view
.subckt sky130_fd_sc_hd__dfxtp_1 CLK D VGND VNB VPB VPWR Q
.ends

* Black-box entry subcircuit for sky130_fd_sc_hd__inv_2 abstract view
.subckt sky130_fd_sc_hd__inv_2 A VGND VNB VPB VPWR Y
.ends

* Black-box entry subcircuit for sky130_fd_sc_hd__buf_2 abstract view
.subckt sky130_fd_sc_hd__buf_2 A VGND VNB VPB VPWR X
.ends

* Black-box entry subcircuit for sky130_fd_sc_hd__nor2_1 abstract view
.subckt sky130_fd_sc_hd__nor2_1 A B VGND VNB VPB VPWR Y
.ends

* Black-box entry subcircuit for sky130_fd_sc_hd__and4_1 abstract view
.subckt sky130_fd_sc_hd__and4_1 A B C D VGND VNB VPB VPWR X
.ends

* Black-box entry subcircuit for sky130_fd_sc_hd__dfstp_1 abstract view
.subckt sky130_fd_sc_hd__dfstp_1 CLK D SET_B VGND VNB VPB VPWR Q
.ends

* Black-box entry subcircuit for sky130_fd_sc_hd__nor3_1 abstract view
.subckt sky130_fd_sc_hd__nor3_1 A B C VGND VNB VPB VPWR Y
.ends

* Black-box entry subcircuit for sky130_fd_sc_hd__a21bo_1 abstract view
.subckt sky130_fd_sc_hd__a21bo_1 A1 A2 B1_N VGND VNB VPB VPWR X
.ends

* Black-box entry subcircuit for sky130_fd_sc_hd__dfxtp_2 abstract view
.subckt sky130_fd_sc_hd__dfxtp_2 CLK D VGND VNB VPB VPWR Q
.ends

* Black-box entry subcircuit for sky130_fd_sc_hd__and3_1 abstract view
.subckt sky130_fd_sc_hd__and3_1 A B C VGND VNB VPB VPWR X
.ends

* Black-box entry subcircuit for sky130_fd_sc_hd__xnor2_2 abstract view
.subckt sky130_fd_sc_hd__xnor2_2 A B VGND VNB VPB VPWR Y
.ends

* Black-box entry subcircuit for sky130_fd_sc_hd__nand2_2 abstract view
.subckt sky130_fd_sc_hd__nand2_2 A B VGND VNB VPB VPWR Y
.ends

* Black-box entry subcircuit for sky130_fd_sc_hd__or2_1 abstract view
.subckt sky130_fd_sc_hd__or2_1 A B VGND VNB VPB VPWR X
.ends

* Black-box entry subcircuit for sky130_fd_sc_hd__a21oi_1 abstract view
.subckt sky130_fd_sc_hd__a21oi_1 A1 A2 B1 VGND VNB VPB VPWR Y
.ends

* Black-box entry subcircuit for sky130_fd_sc_hd__a22o_1 abstract view
.subckt sky130_fd_sc_hd__a22o_1 A1 A2 B1 B2 VGND VNB VPB VPWR X
.ends

* Black-box entry subcircuit for sky130_fd_sc_hd__a22oi_1 abstract view
.subckt sky130_fd_sc_hd__a22oi_1 A1 A2 B1 B2 VGND VNB VPB VPWR Y
.ends

* Black-box entry subcircuit for sky130_fd_sc_hd__a21o_1 abstract view
.subckt sky130_fd_sc_hd__a21o_1 A1 A2 B1 VGND VNB VPB VPWR X
.ends

* Black-box entry subcircuit for sky130_fd_sc_hd__xnor2_1 abstract view
.subckt sky130_fd_sc_hd__xnor2_1 A B VGND VNB VPB VPWR Y
.ends

* Black-box entry subcircuit for sky130_fd_sc_hd__buf_8 abstract view
.subckt sky130_fd_sc_hd__buf_8 A VGND VNB VPB VPWR X
.ends

* Black-box entry subcircuit for sky130_fd_sc_hd__and2_1 abstract view
.subckt sky130_fd_sc_hd__and2_1 A B VGND VNB VPB VPWR X
.ends

* Black-box entry subcircuit for sky130_fd_sc_hd__clkbuf_4 abstract view
.subckt sky130_fd_sc_hd__clkbuf_4 A VGND VNB VPB VPWR X
.ends

* Black-box entry subcircuit for sky130_fd_sc_hd__o31a_1 abstract view
.subckt sky130_fd_sc_hd__o31a_1 A1 A2 A3 B1 VGND VNB VPB VPWR X
.ends

* Black-box entry subcircuit for sky130_fd_sc_hd__nand4_1 abstract view
.subckt sky130_fd_sc_hd__nand4_1 A B C D VGND VNB VPB VPWR Y
.ends

* Black-box entry subcircuit for sky130_fd_sc_hd__a221o_1 abstract view
.subckt sky130_fd_sc_hd__a221o_1 A1 A2 B1 B2 C1 VGND VNB VPB VPWR X
.ends

* Black-box entry subcircuit for sky130_fd_sc_hd__clkbuf_2 abstract view
.subckt sky130_fd_sc_hd__clkbuf_2 A VGND VNB VPB VPWR X
.ends

* Black-box entry subcircuit for sky130_fd_sc_hd__and4b_2 abstract view
.subckt sky130_fd_sc_hd__and4b_2 A_N B C D VGND VNB VPB VPWR X
.ends

* Black-box entry subcircuit for sky130_fd_sc_hd__a21oi_2 abstract view
.subckt sky130_fd_sc_hd__a21oi_2 A1 A2 B1 VGND VNB VPB VPWR Y
.ends

* Black-box entry subcircuit for sky130_fd_sc_hd__a32o_2 abstract view
.subckt sky130_fd_sc_hd__a32o_2 A1 A2 A3 B1 B2 VGND VNB VPB VPWR X
.ends

* Black-box entry subcircuit for sky130_fd_sc_hd__and3b_1 abstract view
.subckt sky130_fd_sc_hd__and3b_1 A_N B C VGND VNB VPB VPWR X
.ends

* Black-box entry subcircuit for sky130_fd_sc_hd__a22o_2 abstract view
.subckt sky130_fd_sc_hd__a22o_2 A1 A2 B1 B2 VGND VNB VPB VPWR X
.ends

* Black-box entry subcircuit for sky130_fd_sc_hd__dlymetal6s2s_1 abstract view
.subckt sky130_fd_sc_hd__dlymetal6s2s_1 A VGND VNB VPB VPWR X
.ends

* Black-box entry subcircuit for sky130_fd_sc_hd__o211ai_4 abstract view
.subckt sky130_fd_sc_hd__o211ai_4 A1 A2 B1 C1 VGND VNB VPB VPWR Y
.ends

* Black-box entry subcircuit for sky130_fd_sc_hd__a21boi_1 abstract view
.subckt sky130_fd_sc_hd__a21boi_1 A1 A2 B1_N VGND VNB VPB VPWR Y
.ends

* Black-box entry subcircuit for sky130_fd_sc_hd__buf_6 abstract view
.subckt sky130_fd_sc_hd__buf_6 A VGND VNB VPB VPWR X
.ends

* Black-box entry subcircuit for sky130_fd_sc_hd__dlygate4sd3_1 abstract view
.subckt sky130_fd_sc_hd__dlygate4sd3_1 A VGND VNB VPB VPWR X
.ends

* Black-box entry subcircuit for sky130_fd_sc_hd__and4b_1 abstract view
.subckt sky130_fd_sc_hd__and4b_1 A_N B C D VGND VNB VPB VPWR X
.ends

* Black-box entry subcircuit for sky130_fd_sc_hd__and2b_1 abstract view
.subckt sky130_fd_sc_hd__and2b_1 A_N B VGND VNB VPB VPWR X
.ends

* Black-box entry subcircuit for sky130_fd_sc_hd__or2b_1 abstract view
.subckt sky130_fd_sc_hd__or2b_1 A B_N VGND VNB VPB VPWR X
.ends

.subckt tholin_avalonsemi_tbb1143 clk io_in[0] io_in[1] io_in[2] io_in[3] io_in[4]
+ io_in[5] io_out[0] io_out[1] io_out[2] io_out[3] io_out[4] io_out[5] io_out[6] io_out[7]
+ rst vccd1 vssd1
XTAP_177 vssd1 vccd1 sky130_fd_sc_hd__tapvpwrvgnd_1
XTAP_188 vssd1 vccd1 sky130_fd_sc_hd__tapvpwrvgnd_1
XTAP_199 vssd1 vccd1 sky130_fd_sc_hd__tapvpwrvgnd_1
XFILLER_22_111 vssd1 vssd1 vccd1 vccd1 sky130_fd_sc_hd__decap_4
X_432_ _000_ clknet_1_0__leaf__213_ vssd1 vssd1 vccd1 vccd1 _090_ sky130_fd_sc_hd__xor2_2
XFILLER_13_111 vssd1 vssd1 vccd1 vccd1 sky130_fd_sc_hd__fill_1
X_501_ clknet_1_0__leaf__262_ vssd1 vssd1 vccd1 vccd1 _263_ sky130_fd_sc_hd__buf_1
XFILLER_26_63 vssd1 vssd1 vccd1 vccd1 sky130_fd_sc_hd__decap_8
XFILLER_26_85 vssd1 vssd1 vccd1 vccd1 sky130_fd_sc_hd__decap_4
XFILLER_13_166 vssd1 vssd1 vccd1 vccd1 sky130_fd_sc_hd__fill_2
XFILLER_3_78 vssd1 vssd1 vccd1 vccd1 sky130_fd_sc_hd__decap_6
XFILLER_27_269 vssd1 vssd1 vccd1 vccd1 sky130_fd_sc_hd__decap_4
XFILLER_27_225 vssd1 vssd1 vccd1 vccd1 sky130_fd_sc_hd__decap_4
XFILLER_27_214 vssd1 vssd1 vccd1 vccd1 sky130_fd_sc_hd__decap_4
XFILLER_41_261 vssd1 vssd1 vccd1 vccd1 sky130_ef_sc_hd__decap_12
X_415_ _196_ _197_ _198_ _199_ vssd1 vssd1 vccd1 vccd1 _200_ sky130_fd_sc_hd__or4_1
XFILLER_33_239 vssd1 vssd1 vccd1 vccd1 sky130_fd_sc_hd__decap_4
XFILLER_5_151 vssd1 vssd1 vccd1 vccd1 sky130_ef_sc_hd__decap_12
XANTENNA__401__A0 _188_ vssd1 vssd1 vccd1 vccd1 sky130_fd_sc_hd__diode_2
X_964_ net20 _176_ _099_ vssd1 vssd1 vccd1 vccd1 CIRCUIT_2223.GATES_3.input2 sky130_fd_sc_hd__dfrtp_1
XFILLER_2_165 vssd1 vssd1 vccd1 vccd1 sky130_ef_sc_hd__decap_12
XFILLER_2_121 vssd1 vssd1 vccd1 vccd1 sky130_ef_sc_hd__decap_12
X_895_ _042_ CIRCUIT_2223.triangle_wave_generator_1.MEMORY_34.d _041_ vssd1 vssd1
+ vccd1 vccd1 CIRCUIT_2223.triangle_wave_generator_1.MEMORY_34.s_currentState sky130_fd_sc_hd__dfrtp_1
XFILLER_0_13 vssd1 vssd1 vccd1 vccd1 sky130_fd_sc_hd__decap_4
XFILLER_0_57 vssd1 vssd1 vccd1 vccd1 sky130_ef_sc_hd__decap_12
XFILLER_17_9 vssd1 vssd1 vccd1 vccd1 sky130_fd_sc_hd__fill_1
XFILLER_14_250 vssd1 vssd1 vccd1 vccd1 sky130_fd_sc_hd__fill_2
XFILLER_44_19 vssd1 vssd1 vccd1 vccd1 sky130_fd_sc_hd__decap_8
XANTENNA__631__A0 _188_ vssd1 vssd1 vccd1 vccd1 sky130_fd_sc_hd__diode_2
XFILLER_20_253 vssd1 vssd1 vccd1 vccd1 sky130_fd_sc_hd__fill_2
X_680_ _328_ vssd1 vssd1 vccd1 vccd1 _134_ sky130_fd_sc_hd__clkbuf_1
XFILLER_34_85 vssd1 vssd1 vccd1 vccd1 sky130_fd_sc_hd__decap_6
XFILLER_7_279 vssd1 vssd1 vccd1 vccd1 sky130_fd_sc_hd__fill_1
X_947_ _093_ CIRCUIT_2223.tone_generator_2_2.MEMORY_37.d _092_ vssd1 vssd1 vccd1 vccd1
+ CIRCUIT_2223.tone_generator_2_2.MEMORY_37.s_currentState sky130_fd_sc_hd__dfrtp_1
X_878_ _010_ CIRCUIT_2223.tone_generator_1.tone_generator_2_1.MEMORY_28.clock _009_
+ vssd1 vssd1 vccd1 vccd1 CIRCUIT_2223.tone_generator_1.tone_generator_2_1.MEMORY_38.s_currentState
+ sky130_fd_sc_hd__dfrtp_2
XFILLER_29_117 vssd1 vssd1 vccd1 vccd1 sky130_fd_sc_hd__fill_1
XFILLER_20_10 vssd1 vssd1 vccd1 vccd1 sky130_fd_sc_hd__decap_4
X_801_ _369_ vssd1 vssd1 vccd1 vccd1 _167_ sky130_fd_sc_hd__clkbuf_1
X_732_ _184_ CIRCUIT_2223.triangle_wave_generator_1.GATES_13.input2 _260_ vssd1 vssd1
+ vccd1 vccd1 _343_ sky130_fd_sc_hd__mux2_1
XFILLER_43_120 vssd1 vssd1 vccd1 vccd1 sky130_fd_sc_hd__decap_4
X_663_ _320_ _319_ vssd1 vssd1 vccd1 vccd1 _004_ sky130_fd_sc_hd__nand2_1
XFILLER_28_194 vssd1 vssd1 vccd1 vccd1 sky130_fd_sc_hd__fill_2
XFILLER_28_150 vssd1 vssd1 vccd1 vccd1 sky130_fd_sc_hd__decap_4
X_594_ CIRCUIT_2223.MEMORY_25.s_currentState vssd1 vssd1 vccd1 vccd1 CIRCUIT_2223.MEMORY_25.d
+ sky130_fd_sc_hd__clkinv_2
XTAP_315 vssd1 vccd1 sky130_fd_sc_hd__tapvpwrvgnd_1
XTAP_304 vssd1 vccd1 sky130_fd_sc_hd__tapvpwrvgnd_1
XFILLER_6_78 vssd1 vssd1 vccd1 vccd1 sky130_fd_sc_hd__decap_6
XFILLER_13_3 vssd1 vssd1 vccd1 vccd1 sky130_fd_sc_hd__decap_6
XFILLER_34_197 vssd1 vssd1 vccd1 vccd1 sky130_fd_sc_hd__decap_3
XFILLER_34_164 vssd1 vssd1 vccd1 vccd1 sky130_fd_sc_hd__decap_6
XFILLER_34_131 vssd1 vssd1 vccd1 vccd1 sky130_fd_sc_hd__decap_4
XFILLER_19_194 vssd1 vssd1 vccd1 vccd1 sky130_fd_sc_hd__decap_4
XFILLER_15_32 vssd1 vssd1 vccd1 vccd1 sky130_fd_sc_hd__decap_4
XFILLER_40_134 vssd1 vssd1 vccd1 vccd1 sky130_fd_sc_hd__decap_6
XANTENNA_fanout20_A net21 vssd1 vssd1 vccd1 vccd1 sky130_fd_sc_hd__diode_2
X_715_ CIRCUIT_2223.triangle_wave_generator_1.MEMORY_35.s_currentState vssd1 vssd1
+ vccd1 vccd1 _046_ sky130_fd_sc_hd__clkinv_2
X_646_ slow_clock\[3\] _309_ _311_ vssd1 vssd1 vccd1 vccd1 _125_ sky130_fd_sc_hd__o21a_1
X_577_ CIRCUIT_2223.tone_generator_2_1.MEMORY_35.s_currentState vssd1 vssd1 vccd1
+ vccd1 CIRCUIT_2223.tone_generator_2_1.MEMORY_35.d sky130_fd_sc_hd__clkinv_2
XFILLER_16_197 vssd1 vssd1 vccd1 vccd1 sky130_fd_sc_hd__fill_2
XFILLER_39_223 vssd1 vssd1 vccd1 vccd1 sky130_fd_sc_hd__fill_1
XTAP_123 vssd1 vccd1 sky130_fd_sc_hd__tapvpwrvgnd_1
XTAP_112 vssd1 vccd1 sky130_fd_sc_hd__tapvpwrvgnd_1
XTAP_101 vssd1 vccd1 sky130_fd_sc_hd__tapvpwrvgnd_1
XTAP_134 vssd1 vccd1 sky130_fd_sc_hd__tapvpwrvgnd_1
XTAP_145 vssd1 vccd1 sky130_fd_sc_hd__tapvpwrvgnd_1
XTAP_156 vssd1 vccd1 sky130_fd_sc_hd__tapvpwrvgnd_1
XTAP_167 vssd1 vccd1 sky130_fd_sc_hd__tapvpwrvgnd_1
XTAP_178 vssd1 vccd1 sky130_fd_sc_hd__tapvpwrvgnd_1
XTAP_189 vssd1 vccd1 sky130_fd_sc_hd__tapvpwrvgnd_1
X_500_ net27 _243_ _256_ _261_ _117_ vssd1 vssd1 vccd1 vccd1 _262_ sky130_fd_sc_hd__o32a_2
X_431_ _000_ clknet_1_0__leaf__213_ vssd1 vssd1 vccd1 vccd1 _092_ sky130_fd_sc_hd__xor2_2
XFILLER_42_85 vssd1 vssd1 vccd1 vccd1 sky130_fd_sc_hd__fill_2
XFILLER_3_57 vssd1 vssd1 vccd1 vccd1 sky130_fd_sc_hd__decap_6
XFILLER_3_35 vssd1 vssd1 vccd1 vccd1 sky130_fd_sc_hd__decap_6
X_629_ net2 net1 CIRCUIT_2223.GATES_1.input1\[0\] _257_ vssd1 vssd1 vccd1 vccd1 _301_
+ sky130_fd_sc_hd__and4_2
XFILLER_44_281 vssd1 vssd1 vccd1 vccd1 sky130_fd_sc_hd__decap_6
Xclkbuf_1_0__f__236_ clknet_0__236_ vssd1 vssd1 vccd1 vccd1 clknet_1_0__leaf__236_
+ sky130_fd_sc_hd__clkbuf_16
XANTENNA__677__D net1 vssd1 vssd1 vccd1 vccd1 sky130_fd_sc_hd__diode_2
XFILLER_35_281 vssd1 vssd1 vccd1 vccd1 sky130_fd_sc_hd__decap_6
XFILLER_12_44 vssd1 vssd1 vccd1 vccd1 sky130_fd_sc_hd__decap_4
XFILLER_18_204 vssd1 vssd1 vccd1 vccd1 sky130_fd_sc_hd__decap_8
XFILLER_41_273 vssd1 vssd1 vccd1 vccd1 sky130_fd_sc_hd__decap_6
X_414_ CIRCUIT_2223.tone_generator_2_2.MEMORY_31.s_currentState CIRCUIT_2223.tone_generator_2_2.GATES_10.input2
+ vssd1 vssd1 vccd1 vccd1 _199_ sky130_fd_sc_hd__xor2_1
XFILLER_33_229 vssd1 vssd1 vccd1 vccd1 sky130_fd_sc_hd__fill_1
XANTENNA__405__A _191_ vssd1 vssd1 vccd1 vccd1 sky130_fd_sc_hd__diode_2
XFILLER_5_163 vssd1 vssd1 vccd1 vccd1 sky130_fd_sc_hd__decap_4
XFILLER_17_281 vssd1 vssd1 vccd1 vccd1 sky130_fd_sc_hd__decap_6
XFILLER_32_262 vssd1 vssd1 vccd1 vccd1 sky130_ef_sc_hd__decap_12
XFILLER_32_251 vssd1 vssd1 vccd1 vccd1 sky130_fd_sc_hd__fill_1
XFILLER_15_207 vssd1 vssd1 vccd1 vccd1 sky130_fd_sc_hd__fill_1
XFILLER_15_218 vssd1 vssd1 vccd1 vccd1 sky130_fd_sc_hd__decap_6
XFILLER_23_54 vssd1 vssd1 vccd1 vccd1 sky130_fd_sc_hd__fill_2
XFILLER_23_76 vssd1 vssd1 vccd1 vccd1 sky130_fd_sc_hd__decap_4
X_963_ net20 _175_ _098_ vssd1 vssd1 vccd1 vccd1 CIRCUIT_2223.GATES_2.input2 sky130_fd_sc_hd__dfrtp_1
XFILLER_2_177 vssd1 vssd1 vccd1 vccd1 sky130_ef_sc_hd__decap_12
XFILLER_2_133 vssd1 vssd1 vccd1 vccd1 sky130_fd_sc_hd__decap_6
X_894_ _040_ CIRCUIT_2223.triangle_wave_generator_1.MEMORY_33.d _039_ vssd1 vssd1
+ vccd1 vccd1 CIRCUIT_2223.triangle_wave_generator_1.MEMORY_33.s_currentState sky130_fd_sc_hd__dfrtp_1
XFILLER_0_25 vssd1 vssd1 vccd1 vccd1 sky130_fd_sc_hd__decap_3
XFILLER_0_69 vssd1 vssd1 vccd1 vccd1 sky130_ef_sc_hd__decap_12
XFILLER_9_12 vssd1 vssd1 vccd1 vccd1 sky130_fd_sc_hd__decap_4
XFILLER_43_3 vssd1 vssd1 vccd1 vccd1 sky130_fd_sc_hd__fill_2
XANTENNA__395__A0 _184_ vssd1 vssd1 vccd1 vccd1 sky130_fd_sc_hd__diode_2
XFILLER_20_243 vssd1 vssd1 vccd1 vccd1 sky130_fd_sc_hd__decap_4
XFILLER_20_287 vssd1 vssd1 vccd1 vccd1 sky130_fd_sc_hd__fill_1
XFILLER_34_64 vssd1 vssd1 vccd1 vccd1 sky130_fd_sc_hd__decap_4
XFILLER_7_225 vssd1 vssd1 vccd1 vccd1 sky130_fd_sc_hd__decap_4
XFILLER_11_287 vssd1 vssd1 vccd1 vccd1 sky130_fd_sc_hd__fill_1
X_946_ _091_ CIRCUIT_2223.tone_generator_2_2.MEMORY_36.d _090_ vssd1 vssd1 vccd1 vccd1
+ CIRCUIT_2223.tone_generator_2_2.MEMORY_36.s_currentState sky130_fd_sc_hd__dfrtp_1
X_877_ CIRCUIT_2223.tone_generator_1.tone_generator_2_1.GATES_27.result CIRCUIT_2223.tone_generator_1.tone_generator_2_1.MEMORY_39.d
+ vssd1 vssd1 vccd1 vccd1 CIRCUIT_2223.tone_generator_1.tone_generator_2_1.MEMORY_39.s_currentState
+ sky130_fd_sc_hd__dfxtp_1
XFILLER_20_22 vssd1 vssd1 vccd1 vccd1 sky130_fd_sc_hd__fill_1
XFILLER_20_77 vssd1 vssd1 vccd1 vccd1 sky130_fd_sc_hd__fill_1
X_662_ _320_ _319_ vssd1 vssd1 vccd1 vccd1 _003_ sky130_fd_sc_hd__nand2_1
X_800_ net3 CIRCUIT_2223.tone_generator_2_2.GATES_11.input2 _368_ vssd1 vssd1 vccd1
+ vccd1 _369_ sky130_fd_sc_hd__mux2_1
X_731_ _342_ vssd1 vssd1 vccd1 vccd1 _146_ sky130_fd_sc_hd__clkbuf_1
XFILLER_43_176 vssd1 vssd1 vccd1 vccd1 sky130_ef_sc_hd__decap_12
XFILLER_43_110 vssd1 vssd1 vccd1 vccd1 sky130_fd_sc_hd__fill_2
X_593_ CIRCUIT_2223.MEMORY_26.s_currentState vssd1 vssd1 vccd1 vccd1 CIRCUIT_2223.MEMORY_18.clock
+ sky130_fd_sc_hd__inv_2
XFILLER_6_35 vssd1 vssd1 vccd1 vccd1 sky130_fd_sc_hd__decap_4
XTAP_316 vssd1 vccd1 sky130_fd_sc_hd__tapvpwrvgnd_1
XTAP_305 vssd1 vccd1 sky130_fd_sc_hd__tapvpwrvgnd_1
XFILLER_3_261 vssd1 vssd1 vccd1 vccd1 sky130_ef_sc_hd__decap_12
X_929_ net25 _155_ vssd1 vssd1 vccd1 vccd1 CIRCUIT_2223.tone_generator_1.tone_generator_2_1.GATES_10.input2
+ sky130_fd_sc_hd__dfxtp_1
XANTENNA__770__A0 net6 vssd1 vssd1 vccd1 vccd1 sky130_fd_sc_hd__diode_2
XFILLER_15_55 vssd1 vssd1 vccd1 vccd1 sky130_fd_sc_hd__fill_1
XFILLER_15_66 vssd1 vssd1 vccd1 vccd1 sky130_fd_sc_hd__decap_6
XFILLER_25_110 vssd1 vssd1 vccd1 vccd1 sky130_fd_sc_hd__fill_2
XANTENNA__761__A0 _184_ vssd1 vssd1 vccd1 vccd1 sky130_fd_sc_hd__diode_2
XFILLER_31_54 vssd1 vssd1 vccd1 vccd1 sky130_fd_sc_hd__fill_2
XFILLER_31_21 vssd1 vssd1 vccd1 vccd1 sky130_fd_sc_hd__decap_8
Xoutput10 net10 vssd1 vssd1 vccd1 vccd1 io_out[2] sky130_fd_sc_hd__buf_2
Xoutput8 net8 vssd1 vssd1 vccd1 vccd1 io_out[0] sky130_fd_sc_hd__buf_2
XFILLER_0_253 vssd1 vssd1 vccd1 vccd1 sky130_ef_sc_hd__decap_12
X_645_ _306_ _310_ vssd1 vssd1 vccd1 vccd1 _311_ sky130_fd_sc_hd__nor2_1
X_714_ CIRCUIT_2223.triangle_wave_generator_1.MEMORY_34.s_currentState vssd1 vssd1
+ vccd1 vccd1 _044_ sky130_fd_sc_hd__clkinv_2
XFILLER_31_113 vssd1 vssd1 vccd1 vccd1 sky130_fd_sc_hd__fill_2
X_576_ CIRCUIT_2223.tone_generator_2_1.MEMORY_34.s_currentState vssd1 vssd1 vccd1
+ vccd1 CIRCUIT_2223.tone_generator_2_1.MEMORY_34.d sky130_fd_sc_hd__clkinv_2
XFILLER_16_176 vssd1 vssd1 vccd1 vccd1 sky130_fd_sc_hd__decap_6
XTAP_124 vssd1 vccd1 sky130_fd_sc_hd__tapvpwrvgnd_1
XTAP_113 vssd1 vccd1 sky130_fd_sc_hd__tapvpwrvgnd_1
XTAP_102 vssd1 vccd1 sky130_fd_sc_hd__tapvpwrvgnd_1
XTAP_135 vssd1 vccd1 sky130_fd_sc_hd__tapvpwrvgnd_1
XTAP_146 vssd1 vccd1 sky130_fd_sc_hd__tapvpwrvgnd_1
XTAP_157 vssd1 vccd1 sky130_fd_sc_hd__tapvpwrvgnd_1
XTAP_168 vssd1 vccd1 sky130_fd_sc_hd__tapvpwrvgnd_1
XTAP_179 vssd1 vccd1 sky130_fd_sc_hd__tapvpwrvgnd_1
XFILLER_39_279 vssd1 vssd1 vccd1 vccd1 sky130_fd_sc_hd__fill_1
XFILLER_30_190 vssd1 vssd1 vccd1 vccd1 sky130_fd_sc_hd__fill_1
XANTENNA__743__A0 net6 vssd1 vssd1 vccd1 vccd1 sky130_fd_sc_hd__diode_2
XFILLER_7_9 vssd1 vssd1 vccd1 vccd1 sky130_fd_sc_hd__fill_1
XFILLER_26_21 vssd1 vssd1 vccd1 vccd1 sky130_fd_sc_hd__decap_6
X_430_ _000_ clknet_1_0__leaf__213_ vssd1 vssd1 vccd1 vccd1 _094_ sky130_fd_sc_hd__xor2_2
XFILLER_13_113 vssd1 vssd1 vccd1 vccd1 sky130_fd_sc_hd__fill_2
XFILLER_13_146 vssd1 vssd1 vccd1 vccd1 sky130_fd_sc_hd__decap_4
XANTENNA__734__A0 net6 vssd1 vssd1 vccd1 vccd1 sky130_fd_sc_hd__diode_2
XFILLER_26_43 vssd1 vssd1 vccd1 vccd1 sky130_fd_sc_hd__decap_4
XFILLER_3_47 vssd1 vssd1 vccd1 vccd1 sky130_fd_sc_hd__decap_4
X_628_ _243_ _256_ vssd1 vssd1 vccd1 vccd1 CIRCUIT_2223.triangle_wave_generator_1.GATES_27.result
+ sky130_fd_sc_hd__nor2_1
Xclkbuf_1_0__f__235_ clknet_0__235_ vssd1 vssd1 vccd1 vccd1 clknet_1_0__leaf__235_
+ sky130_fd_sc_hd__clkbuf_16
X_559_ CIRCUIT_2223.triangle_wave_generator_1.MEMORY_29.s_currentState vssd1 vssd1
+ vccd1 vccd1 CIRCUIT_2223.triangle_wave_generator_1.MEMORY_29.d sky130_fd_sc_hd__clkinv_2
XFILLER_8_194 vssd1 vssd1 vccd1 vccd1 sky130_fd_sc_hd__fill_2
XFILLER_42_219 vssd1 vssd1 vccd1 vccd1 sky130_ef_sc_hd__decap_12
XANTENNA__511__A _191_ vssd1 vssd1 vccd1 vccd1 sky130_fd_sc_hd__diode_2
X_413_ CIRCUIT_2223.tone_generator_2_2.MEMORY_36.s_currentState CIRCUIT_2223.tone_generator_2_2.GATES_15.input2
+ vssd1 vssd1 vccd1 vccd1 _198_ sky130_fd_sc_hd__xor2_1
XFILLER_33_219 vssd1 vssd1 vccd1 vccd1 sky130_fd_sc_hd__decap_4
XFILLER_18_216 vssd1 vssd1 vccd1 vccd1 sky130_fd_sc_hd__decap_8
XFILLER_18_227 vssd1 vssd1 vccd1 vccd1 sky130_fd_sc_hd__decap_8
XFILLER_18_249 vssd1 vssd1 vccd1 vccd1 sky130_fd_sc_hd__decap_3
XFILLER_5_175 vssd1 vssd1 vccd1 vccd1 sky130_fd_sc_hd__decap_8
XANTENNA__506__A _191_ vssd1 vssd1 vccd1 vccd1 sky130_fd_sc_hd__diode_2
XFILLER_23_285 vssd1 vssd1 vccd1 vccd1 sky130_fd_sc_hd__decap_3
XFILLER_3_3 vssd1 vssd1 vccd1 vccd1 sky130_fd_sc_hd__fill_2
X_962_ _097_ net3 vssd1 vssd1 vccd1 vccd1 net14 sky130_fd_sc_hd__dfxtp_1
XFILLER_2_189 vssd1 vssd1 vccd1 vccd1 sky130_fd_sc_hd__decap_6
X_893_ CIRCUIT_2223.MEMORY_24.s_currentState CIRCUIT_2223.triangle_wave_generator_1.MEMORY_32.d
+ _038_ vssd1 vssd1 vccd1 vccd1 CIRCUIT_2223.triangle_wave_generator_1.MEMORY_32.s_currentState
+ sky130_fd_sc_hd__dfrtp_2
XFILLER_9_46 vssd1 vssd1 vccd1 vccd1 sky130_fd_sc_hd__decap_4
XFILLER_9_57 vssd1 vssd1 vccd1 vccd1 sky130_fd_sc_hd__fill_2
XFILLER_14_285 vssd1 vssd1 vccd1 vccd1 sky130_fd_sc_hd__decap_3
XFILLER_36_3 vssd1 vssd1 vccd1 vccd1 sky130_fd_sc_hd__fill_2
XFILLER_18_11 vssd1 vssd1 vccd1 vccd1 sky130_fd_sc_hd__decap_4
XFILLER_7_215 vssd1 vssd1 vccd1 vccd1 sky130_fd_sc_hd__decap_8
XFILLER_11_222 vssd1 vssd1 vccd1 vccd1 sky130_fd_sc_hd__fill_2
XFILLER_11_277 vssd1 vssd1 vccd1 vccd1 sky130_fd_sc_hd__decap_3
X_945_ _089_ CIRCUIT_2223.tone_generator_2_2.MEMORY_35.d _088_ vssd1 vssd1 vccd1 vccd1
+ CIRCUIT_2223.tone_generator_2_2.MEMORY_35.s_currentState sky130_fd_sc_hd__dfrtp_1
X_876_ net20 _141_ vssd1 vssd1 vccd1 vccd1 CIRCUIT_2223.GATES_1.input1\[3\] sky130_fd_sc_hd__dfxtp_1
XFILLER_29_108 vssd1 vssd1 vccd1 vccd1 sky130_fd_sc_hd__decap_4
X_592_ CIRCUIT_2223.tone_generator_2_2.MEMORY_38.s_currentState vssd1 vssd1 vccd1
+ vccd1 CIRCUIT_2223.tone_generator_2_2.MEMORY_28.clock sky130_fd_sc_hd__clkinv_2
X_661_ net20 vssd1 vssd1 vccd1 vccd1 _320_ sky130_fd_sc_hd__buf_2
XFILLER_29_54 vssd1 vssd1 vccd1 vccd1 sky130_fd_sc_hd__fill_2
XFILLER_28_141 vssd1 vssd1 vccd1 vccd1 sky130_fd_sc_hd__fill_2
X_730_ _186_ CIRCUIT_2223.triangle_wave_generator_1.GATES_12.input2 _260_ vssd1 vssd1
+ vccd1 vccd1 _342_ sky130_fd_sc_hd__mux2_1
XFILLER_43_199 vssd1 vssd1 vccd1 vccd1 sky130_fd_sc_hd__fill_1
XFILLER_43_188 vssd1 vssd1 vccd1 vccd1 sky130_fd_sc_hd__fill_1
XFILLER_43_166 vssd1 vssd1 vccd1 vccd1 sky130_fd_sc_hd__fill_2
XTAP_317 vssd1 vccd1 sky130_fd_sc_hd__tapvpwrvgnd_1
XTAP_306 vssd1 vccd1 sky130_fd_sc_hd__tapvpwrvgnd_1
X_928_ net25 _154_ vssd1 vssd1 vccd1 vccd1 CIRCUIT_2223.tone_generator_1.tone_generator_2_1.GATES_9.input2
+ sky130_fd_sc_hd__dfxtp_1
XFILLER_3_273 vssd1 vssd1 vccd1 vccd1 sky130_fd_sc_hd__decap_6
X_859_ net16 CIRCUIT_2223.tone_generator_1.MEMORY_14.s_currentState _003_ vssd1 vssd1
+ vccd1 vccd1 CIRCUIT_2223.tone_generator_1.MEMORY_15.s_currentState sky130_fd_sc_hd__dfrtp_1
XFILLER_19_130 vssd1 vssd1 vccd1 vccd1 sky130_fd_sc_hd__decap_4
XFILLER_40_147 vssd1 vssd1 vccd1 vccd1 sky130_fd_sc_hd__decap_4
XFILLER_40_103 vssd1 vssd1 vccd1 vccd1 sky130_fd_sc_hd__decap_4
XFILLER_15_12 vssd1 vssd1 vccd1 vccd1 sky130_fd_sc_hd__decap_4
XFILLER_31_44 vssd1 vssd1 vccd1 vccd1 sky130_fd_sc_hd__fill_1
Xoutput11 net11 vssd1 vssd1 vccd1 vccd1 io_out[3] sky130_fd_sc_hd__buf_2
Xoutput9 net9 vssd1 vssd1 vccd1 vccd1 io_out[1] sky130_fd_sc_hd__buf_2
XFILLER_0_221 vssd1 vssd1 vccd1 vccd1 sky130_fd_sc_hd__decap_3
XFILLER_0_265 vssd1 vssd1 vccd1 vccd1 sky130_ef_sc_hd__decap_12
XFILLER_0_287 vssd1 vssd1 vccd1 vccd1 sky130_fd_sc_hd__fill_1
X_575_ CIRCUIT_2223.tone_generator_2_1.MEMORY_33.s_currentState vssd1 vssd1 vccd1
+ vccd1 CIRCUIT_2223.tone_generator_2_1.MEMORY_33.d sky130_fd_sc_hd__clkinv_2
X_713_ CIRCUIT_2223.triangle_wave_generator_1.MEMORY_33.s_currentState vssd1 vssd1
+ vccd1 vccd1 _042_ sky130_fd_sc_hd__clkinv_2
X_644_ slow_clock\[0\] slow_clock\[1\] slow_clock\[2\] slow_clock\[3\] vssd1 vssd1
+ vccd1 vccd1 _310_ sky130_fd_sc_hd__and4_1
XFILLER_31_169 vssd1 vssd1 vccd1 vccd1 sky130_fd_sc_hd__fill_2
XFILLER_31_125 vssd1 vssd1 vccd1 vccd1 sky130_fd_sc_hd__decap_4
XTAP_114 vssd1 vccd1 sky130_fd_sc_hd__tapvpwrvgnd_1
XTAP_103 vssd1 vccd1 sky130_fd_sc_hd__tapvpwrvgnd_1
XFILLER_39_225 vssd1 vssd1 vccd1 vccd1 sky130_ef_sc_hd__decap_12
XTAP_125 vssd1 vccd1 sky130_fd_sc_hd__tapvpwrvgnd_1
XTAP_136 vssd1 vccd1 sky130_fd_sc_hd__tapvpwrvgnd_1
XTAP_147 vssd1 vccd1 sky130_fd_sc_hd__tapvpwrvgnd_1
XTAP_158 vssd1 vccd1 sky130_fd_sc_hd__tapvpwrvgnd_1
XTAP_169 vssd1 vccd1 sky130_fd_sc_hd__tapvpwrvgnd_1
XANTENNA__509__A _191_ vssd1 vssd1 vccd1 vccd1 sky130_fd_sc_hd__diode_2
XFILLER_13_169 vssd1 vssd1 vccd1 vccd1 sky130_fd_sc_hd__fill_2
XFILLER_26_77 vssd1 vssd1 vccd1 vccd1 sky130_fd_sc_hd__decap_6
XFILLER_26_99 vssd1 vssd1 vccd1 vccd1 sky130_fd_sc_hd__decap_4
XFILLER_3_15 vssd1 vssd1 vccd1 vccd1 sky130_fd_sc_hd__decap_4
X_627_ CIRCUIT_2223.tone_generator_1.MEMORY_20.s_currentState CIRCUIT_2223.tone_generator_1.MEMORY_9.s_currentState
+ vssd1 vssd1 vccd1 vccd1 CIRCUIT_2223.tone_generator_1.GATES_3.result sky130_fd_sc_hd__xor2_1
X_558_ CIRCUIT_2223.triangle_wave_generator_1.MEMORY_28.s_currentState vssd1 vssd1
+ vccd1 vccd1 CIRCUIT_2223.triangle_wave_generator_1.MEMORY_28.d sky130_fd_sc_hd__clkinv_2
X_489_ CIRCUIT_2223.triangle_wave_generator_1.MEMORY_30.s_currentState CIRCUIT_2223.triangle_wave_generator_1.GATES_9.input2
+ vssd1 vssd1 vccd1 vccd1 _251_ sky130_fd_sc_hd__xor2_1
XFILLER_12_180 vssd1 vssd1 vccd1 vccd1 sky130_fd_sc_hd__decap_8
XFILLER_12_24 vssd1 vssd1 vccd1 vccd1 sky130_fd_sc_hd__decap_4
XFILLER_12_68 vssd1 vssd1 vccd1 vccd1 sky130_fd_sc_hd__decap_6
X_412_ CIRCUIT_2223.tone_generator_2_2.MEMORY_34.s_currentState CIRCUIT_2223.tone_generator_2_2.GATES_13.input2
+ vssd1 vssd1 vccd1 vccd1 _197_ sky130_fd_sc_hd__xor2_1
XFILLER_37_87 vssd1 vssd1 vccd1 vccd1 sky130_fd_sc_hd__fill_1
XFILLER_37_54 vssd1 vssd1 vccd1 vccd1 sky130_fd_sc_hd__fill_2
XFILLER_5_110 vssd1 vssd1 vccd1 vccd1 sky130_fd_sc_hd__fill_2
XANTENNA__702__A _215_ vssd1 vssd1 vccd1 vccd1 sky130_fd_sc_hd__diode_2
XANTENNA_hold1_A CIRCUIT_2223.CLK vssd1 vssd1 vccd1 vccd1 sky130_fd_sc_hd__diode_2
XFILLER_32_286 vssd1 vssd1 vccd1 vccd1 sky130_fd_sc_hd__fill_2
XFILLER_32_253 vssd1 vssd1 vccd1 vccd1 sky130_fd_sc_hd__fill_2
XFILLER_23_23 vssd1 vssd1 vccd1 vccd1 sky130_fd_sc_hd__decap_4
X_961_ _096_ net3 vssd1 vssd1 vccd1 vccd1 net15 sky130_fd_sc_hd__dfxtp_1
X_892_ _037_ CIRCUIT_2223.triangle_wave_generator_1.MEMORY_31.d _036_ vssd1 vssd1
+ vccd1 vccd1 CIRCUIT_2223.triangle_wave_generator_1.MEMORY_31.s_currentState sky130_fd_sc_hd__dfrtp_1
XFILLER_9_36 vssd1 vssd1 vccd1 vccd1 sky130_fd_sc_hd__decap_4
XFILLER_14_242 vssd1 vssd1 vccd1 vccd1 sky130_fd_sc_hd__decap_4
XFILLER_14_253 vssd1 vssd1 vccd1 vccd1 sky130_fd_sc_hd__fill_2
XANTENNA__432__A _000_ vssd1 vssd1 vccd1 vccd1 sky130_fd_sc_hd__diode_2
XFILLER_29_3 vssd1 vssd1 vccd1 vccd1 sky130_fd_sc_hd__decap_4
XFILLER_34_77 vssd1 vssd1 vccd1 vccd1 sky130_fd_sc_hd__decap_6
XFILLER_7_249 vssd1 vssd1 vccd1 vccd1 sky130_ef_sc_hd__decap_12
XFILLER_11_234 vssd1 vssd1 vccd1 vccd1 sky130_fd_sc_hd__decap_6
X_944_ _087_ CIRCUIT_2223.tone_generator_2_2.MEMORY_34.d _086_ vssd1 vssd1 vccd1 vccd1
+ CIRCUIT_2223.tone_generator_2_2.MEMORY_34.s_currentState sky130_fd_sc_hd__dfrtp_1
X_875_ net20 _140_ vssd1 vssd1 vccd1 vccd1 CIRCUIT_2223.GATES_1.input1\[2\] sky130_fd_sc_hd__dfxtp_1
XFILLER_20_35 vssd1 vssd1 vccd1 vccd1 sky130_fd_sc_hd__decap_4
X_591_ CIRCUIT_2223.tone_generator_2_2.MEMORY_37.s_currentState vssd1 vssd1 vccd1
+ vccd1 CIRCUIT_2223.tone_generator_2_2.MEMORY_37.d sky130_fd_sc_hd__clkinv_2
XFILLER_29_88 vssd1 vssd1 vccd1 vccd1 sky130_fd_sc_hd__decap_4
XFILLER_28_197 vssd1 vssd1 vccd1 vccd1 sky130_fd_sc_hd__decap_4
X_660_ _179_ _319_ vssd1 vssd1 vccd1 vccd1 _002_ sky130_fd_sc_hd__nand2_1
XFILLER_6_26 vssd1 vssd1 vccd1 vccd1 sky130_fd_sc_hd__fill_2
XTAP_318 vssd1 vccd1 sky130_fd_sc_hd__tapvpwrvgnd_1
XTAP_307 vssd1 vccd1 sky130_fd_sc_hd__tapvpwrvgnd_1
X_927_ net24 _153_ vssd1 vssd1 vccd1 vccd1 CIRCUIT_2223.tone_generator_1.tone_generator_2_1.GATES_8.input2
+ sky130_fd_sc_hd__dfxtp_1
X_858_ net17 CIRCUIT_2223.tone_generator_1.MEMORY_13.s_currentState _002_ vssd1 vssd1
+ vccd1 vccd1 CIRCUIT_2223.tone_generator_1.MEMORY_14.s_currentState sky130_fd_sc_hd__dfstp_1
X_789_ CIRCUIT_2223.tone_generator_2_2.MEMORY_35.s_currentState vssd1 vssd1 vccd1
+ vccd1 _091_ sky130_fd_sc_hd__clkinv_2
XFILLER_34_101 vssd1 vssd1 vccd1 vccd1 sky130_fd_sc_hd__decap_4
XFILLER_19_142 vssd1 vssd1 vccd1 vccd1 sky130_fd_sc_hd__decap_4
XFILLER_15_57 vssd1 vssd1 vccd1 vccd1 sky130_fd_sc_hd__fill_2
Xoutput12 net12 vssd1 vssd1 vccd1 vccd1 io_out[4] sky130_fd_sc_hd__buf_2
XFILLER_31_34 vssd1 vssd1 vccd1 vccd1 sky130_fd_sc_hd__decap_4
XFILLER_0_277 vssd1 vssd1 vccd1 vccd1 sky130_fd_sc_hd__decap_3
X_712_ CIRCUIT_2223.triangle_wave_generator_1.MEMORY_32.s_currentState vssd1 vssd1
+ vccd1 vccd1 _040_ sky130_fd_sc_hd__clkinv_2