* NGSPICE file created from tholin_avalonsemi_tbb1143.ext - technology: sky130B

* Black-box entry subcircuit for sky130_ef_sc_hd__decap_12 abstract view
.subckt sky130_ef_sc_hd__decap_12 VGND VNB VPB VPWR
.ends

* Black-box entry subcircuit for sky130_fd_sc_hd__tapvpwrvgnd_1 abstract view
.subckt sky130_fd_sc_hd__tapvpwrvgnd_1 VGND VPWR
.ends

* Black-box entry subcircuit for sky130_fd_sc_hd__nor2_1 abstract view
.subckt sky130_fd_sc_hd__nor2_1 A B VGND VNB VPB VPWR Y
.ends

* Black-box entry subcircuit for sky130_fd_sc_hd__fill_2 abstract view
.subckt sky130_fd_sc_hd__fill_2 VGND VNB VPB VPWR
.ends

* Black-box entry subcircuit for sky130_fd_sc_hd__or2_1 abstract view
.subckt sky130_fd_sc_hd__or2_1 A B VGND VNB VPB VPWR X
.ends

* Black-box entry subcircuit for sky130_fd_sc_hd__fill_1 abstract view
.subckt sky130_fd_sc_hd__fill_1 VGND VNB VPB VPWR
.ends

* Black-box entry subcircuit for sky130_fd_sc_hd__decap_6 abstract view
.subckt sky130_fd_sc_hd__decap_6 VGND VNB VPB VPWR
.ends

* Black-box entry subcircuit for sky130_fd_sc_hd__inv_2 abstract view
.subckt sky130_fd_sc_hd__inv_2 A VGND VNB VPB VPWR Y
.ends

* Black-box entry subcircuit for sky130_fd_sc_hd__decap_8 abstract view
.subckt sky130_fd_sc_hd__decap_8 VGND VNB VPB VPWR
.ends

* Black-box entry subcircuit for sky130_fd_sc_hd__a221o_1 abstract view
.subckt sky130_fd_sc_hd__a221o_1 A1 A2 B1 B2 C1 VGND VNB VPB VPWR X
.ends

* Black-box entry subcircuit for sky130_fd_sc_hd__decap_4 abstract view
.subckt sky130_fd_sc_hd__decap_4 VGND VNB VPB VPWR
.ends

* Black-box entry subcircuit for sky130_fd_sc_hd__decap_3 abstract view
.subckt sky130_fd_sc_hd__decap_3 VGND VNB VPB VPWR
.ends

* Black-box entry subcircuit for sky130_fd_sc_hd__nand2_1 abstract view
.subckt sky130_fd_sc_hd__nand2_1 A B VGND VNB VPB VPWR Y
.ends

* Black-box entry subcircuit for sky130_fd_sc_hd__dfrtp_2 abstract view
.subckt sky130_fd_sc_hd__dfrtp_2 CLK D RESET_B VGND VNB VPB VPWR Q
.ends

* Black-box entry subcircuit for sky130_fd_sc_hd__dfxtp_2 abstract view
.subckt sky130_fd_sc_hd__dfxtp_2 CLK D VGND VNB VPB VPWR Q
.ends

* Black-box entry subcircuit for sky130_fd_sc_hd__xor2_2 abstract view
.subckt sky130_fd_sc_hd__xor2_2 A B VGND VNB VPB VPWR X
.ends

* Black-box entry subcircuit for sky130_fd_sc_hd__dfrtp_1 abstract view
.subckt sky130_fd_sc_hd__dfrtp_1 CLK D RESET_B VGND VNB VPB VPWR Q
.ends

* Black-box entry subcircuit for sky130_fd_sc_hd__and2_1 abstract view
.subckt sky130_fd_sc_hd__and2_1 A B VGND VNB VPB VPWR X
.ends

* Black-box entry subcircuit for sky130_fd_sc_hd__mux2_1 abstract view
.subckt sky130_fd_sc_hd__mux2_1 A0 A1 S VGND VNB VPB VPWR X
.ends

* Black-box entry subcircuit for sky130_fd_sc_hd__buf_4 abstract view
.subckt sky130_fd_sc_hd__buf_4 A VGND VNB VPB VPWR X
.ends

* Black-box entry subcircuit for sky130_fd_sc_hd__dfstp_1 abstract view
.subckt sky130_fd_sc_hd__dfstp_1 CLK D SET_B VGND VNB VPB VPWR Q
.ends

* Black-box entry subcircuit for sky130_fd_sc_hd__xnor2_2 abstract view
.subckt sky130_fd_sc_hd__xnor2_2 A B VGND VNB VPB VPWR Y
.ends

* Black-box entry subcircuit for sky130_fd_sc_hd__clkbuf_16 abstract view
.subckt sky130_fd_sc_hd__clkbuf_16 A VGND VNB VPB VPWR X
.ends

* Black-box entry subcircuit for sky130_fd_sc_hd__xor2_1 abstract view
.subckt sky130_fd_sc_hd__xor2_1 A B VGND VNB VPB VPWR X
.ends

* Black-box entry subcircuit for sky130_fd_sc_hd__dfxtp_4 abstract view
.subckt sky130_fd_sc_hd__dfxtp_4 CLK D VGND VNB VPB VPWR Q
.ends

* Black-box entry subcircuit for sky130_fd_sc_hd__nand2_4 abstract view
.subckt sky130_fd_sc_hd__nand2_4 A B VGND VNB VPB VPWR Y
.ends

* Black-box entry subcircuit for sky130_fd_sc_hd__or4_1 abstract view
.subckt sky130_fd_sc_hd__or4_1 A B C D VGND VNB VPB VPWR X
.ends

* Black-box entry subcircuit for sky130_fd_sc_hd__dfxtp_1 abstract view
.subckt sky130_fd_sc_hd__dfxtp_1 CLK D VGND VNB VPB VPWR Q
.ends

* Black-box entry subcircuit for sky130_fd_sc_hd__o31a_2 abstract view
.subckt sky130_fd_sc_hd__o31a_2 A1 A2 A3 B1 VGND VNB VPB VPWR X
.ends

* Black-box entry subcircuit for sky130_fd_sc_hd__and4_1 abstract view
.subckt sky130_fd_sc_hd__and4_1 A B C D VGND VNB VPB VPWR X
.ends

* Black-box entry subcircuit for sky130_fd_sc_hd__and4_2 abstract view
.subckt sky130_fd_sc_hd__and4_2 A B C D VGND VNB VPB VPWR X
.ends

* Black-box entry subcircuit for sky130_fd_sc_hd__a22oi_2 abstract view
.subckt sky130_fd_sc_hd__a22oi_2 A1 A2 B1 B2 VGND VNB VPB VPWR Y
.ends

* Black-box entry subcircuit for sky130_fd_sc_hd__nand2_2 abstract view
.subckt sky130_fd_sc_hd__nand2_2 A B VGND VNB VPB VPWR Y
.ends

* Black-box entry subcircuit for sky130_fd_sc_hd__xnor2_1 abstract view
.subckt sky130_fd_sc_hd__xnor2_1 A B VGND VNB VPB VPWR Y
.ends

* Black-box entry subcircuit for sky130_fd_sc_hd__a22o_2 abstract view
.subckt sky130_fd_sc_hd__a22o_2 A1 A2 B1 B2 VGND VNB VPB VPWR X
.ends

* Black-box entry subcircuit for sky130_fd_sc_hd__o211ai_4 abstract view
.subckt sky130_fd_sc_hd__o211ai_4 A1 A2 B1 C1 VGND VNB VPB VPWR Y
.ends

* Black-box entry subcircuit for sky130_fd_sc_hd__a21oi_1 abstract view
.subckt sky130_fd_sc_hd__a21oi_1 A1 A2 B1 VGND VNB VPB VPWR Y
.ends

* Black-box entry subcircuit for sky130_fd_sc_hd__dfrtp_4 abstract view
.subckt sky130_fd_sc_hd__dfrtp_4 CLK D RESET_B VGND VNB VPB VPWR Q
.ends

* Black-box entry subcircuit for sky130_fd_sc_hd__a22o_1 abstract view
.subckt sky130_fd_sc_hd__a22o_1 A1 A2 B1 B2 VGND VNB VPB VPWR X
.ends

* Black-box entry subcircuit for sky130_fd_sc_hd__o21a_1 abstract view
.subckt sky130_fd_sc_hd__o21a_1 A1 A2 B1 VGND VNB VPB VPWR X
.ends

* Black-box entry subcircuit for sky130_fd_sc_hd__and2b_1 abstract view
.subckt sky130_fd_sc_hd__and2b_1 A_N B VGND VNB VPB VPWR X
.ends

* Black-box entry subcircuit for sky130_fd_sc_hd__nor3_2 abstract view
.subckt sky130_fd_sc_hd__nor3_2 A B C VGND VNB VPB VPWR Y
.ends

* Black-box entry subcircuit for sky130_fd_sc_hd__buf_12 abstract view
.subckt sky130_fd_sc_hd__buf_12 A VGND VNB VPB VPWR X
.ends

* Black-box entry subcircuit for sky130_fd_sc_hd__clkbuf_4 abstract view
.subckt sky130_fd_sc_hd__clkbuf_4 A VGND VNB VPB VPWR X
.ends

* Black-box entry subcircuit for sky130_fd_sc_hd__nand2b_2 abstract view
.subckt sky130_fd_sc_hd__nand2b_2 A_N B VGND VNB VPB VPWR Y
.ends

* Black-box entry subcircuit for sky130_fd_sc_hd__buf_6 abstract view
.subckt sky130_fd_sc_hd__buf_6 A VGND VNB VPB VPWR X
.ends

* Black-box entry subcircuit for sky130_fd_sc_hd__o32a_2 abstract view
.subckt sky130_fd_sc_hd__o32a_2 A1 A2 A3 B1 B2 VGND VNB VPB VPWR X
.ends

* Black-box entry subcircuit for sky130_fd_sc_hd__nand2_8 abstract view
.subckt sky130_fd_sc_hd__nand2_8 A B VGND VNB VPB VPWR Y
.ends

* Black-box entry subcircuit for sky130_fd_sc_hd__a21boi_1 abstract view
.subckt sky130_fd_sc_hd__a21boi_1 A1 A2 B1_N VGND VNB VPB VPWR Y
.ends

* Black-box entry subcircuit for sky130_fd_sc_hd__and3_1 abstract view
.subckt sky130_fd_sc_hd__and3_1 A B C VGND VNB VPB VPWR X
.ends

* Black-box entry subcircuit for sky130_fd_sc_hd__and4b_4 abstract view
.subckt sky130_fd_sc_hd__and4b_4 A_N B C D VGND VNB VPB VPWR X
.ends

* Black-box entry subcircuit for sky130_fd_sc_hd__clkbuf_2 abstract view
.subckt sky130_fd_sc_hd__clkbuf_2 A VGND VNB VPB VPWR X
.ends

* Black-box entry subcircuit for sky130_fd_sc_hd__clkbuf_8 abstract view
.subckt sky130_fd_sc_hd__clkbuf_8 A VGND VNB VPB VPWR X
.ends

* Black-box entry subcircuit for sky130_fd_sc_hd__buf_2 abstract view
.subckt sky130_fd_sc_hd__buf_2 A VGND VNB VPB VPWR X
.ends

* Black-box entry subcircuit for sky130_fd_sc_hd__or4_2 abstract view
.subckt sky130_fd_sc_hd__or4_2 A B C D VGND VNB VPB VPWR X
.ends

* Black-box entry subcircuit for sky130_fd_sc_hd__and4_4 abstract view
.subckt sky130_fd_sc_hd__and4_4 A B C D VGND VNB VPB VPWR X
.ends

* Black-box entry subcircuit for sky130_fd_sc_hd__a21oi_2 abstract view
.subckt sky130_fd_sc_hd__a21oi_2 A1 A2 B1 VGND VNB VPB VPWR Y
.ends

* Black-box entry subcircuit for sky130_fd_sc_hd__and3b_1 abstract view
.subckt sky130_fd_sc_hd__and3b_1 A_N B C VGND VNB VPB VPWR X
.ends

* Black-box entry subcircuit for sky130_fd_sc_hd__a21bo_1 abstract view
.subckt sky130_fd_sc_hd__a21bo_1 A1 A2 B1_N VGND VNB VPB VPWR X
.ends

* Black-box entry subcircuit for sky130_fd_sc_hd__a32o_2 abstract view
.subckt sky130_fd_sc_hd__a32o_2 A1 A2 A3 B1 B2 VGND VNB VPB VPWR X
.ends

* Black-box entry subcircuit for sky130_fd_sc_hd__a22oi_1 abstract view
.subckt sky130_fd_sc_hd__a22oi_1 A1 A2 B1 B2 VGND VNB VPB VPWR Y
.ends

* Black-box entry subcircuit for sky130_fd_sc_hd__a21o_1 abstract view
.subckt sky130_fd_sc_hd__a21o_1 A1 A2 B1 VGND VNB VPB VPWR X
.ends

* Black-box entry subcircuit for sky130_fd_sc_hd__nand4_1 abstract view
.subckt sky130_fd_sc_hd__nand4_1 A B C D VGND VNB VPB VPWR Y
.ends

* Black-box entry subcircuit for sky130_fd_sc_hd__nor3_1 abstract view
.subckt sky130_fd_sc_hd__nor3_1 A B C VGND VNB VPB VPWR Y
.ends

.subckt tholin_avalonsemi_tbb1143 clk io_in[0] io_in[1] io_in[2] io_in[3] io_in[4]
+ io_in[5] io_out[0] io_out[1] io_out[2] io_out[3] io_out[4] io_out[5] io_out[6] io_out[7]
+ rst vccd1 vssd1
XFILLER_39_255 vssd1 vssd1 vccd1 vccd1 sky130_ef_sc_hd__decap_12
XTAP_177 vssd1 vccd1 sky130_fd_sc_hd__tapvpwrvgnd_1
XTAP_188 vssd1 vccd1 sky130_fd_sc_hd__tapvpwrvgnd_1
XTAP_199 vssd1 vccd1 sky130_fd_sc_hd__tapvpwrvgnd_1
X_501_ _693_/Q _680_/B vssd1 vssd1 vccd1 vccd1 _693_/D sky130_fd_sc_hd__nor2_1
XFILLER_45_225 vssd1 vssd1 vccd1 vccd1 sky130_fd_sc_hd__fill_2
X_432_ _752_/Q _766_/Q vssd1 vssd1 vccd1 vccd1 _432_/X sky130_fd_sc_hd__or2_1
XFILLER_13_111 vssd1 vssd1 vccd1 vccd1 sky130_fd_sc_hd__fill_1
XFILLER_26_41 vssd1 vssd1 vccd1 vccd1 sky130_fd_sc_hd__decap_6
XFILLER_26_85 vssd1 vssd1 vccd1 vccd1 sky130_fd_sc_hd__fill_2
XFILLER_26_96 vssd1 vssd1 vccd1 vccd1 sky130_ef_sc_hd__decap_12
XFILLER_9_137 vssd1 vssd1 vccd1 vccd1 sky130_fd_sc_hd__fill_2
X_363_ _824_/Q vssd1 vssd1 vccd1 vccd1 _824_/D sky130_fd_sc_hd__inv_2
XFILLER_44_291 vssd1 vssd1 vccd1 vccd1 sky130_fd_sc_hd__decap_8
XFILLER_42_217 vssd1 vssd1 vccd1 vccd1 sky130_fd_sc_hd__fill_2
XFILLER_27_225 vssd1 vssd1 vccd1 vccd1 sky130_fd_sc_hd__fill_2
X_346_ _778_/Q vssd1 vssd1 vccd1 vccd1 _778_/D sky130_fd_sc_hd__inv_2
X_415_ _405_/X _406_/Y _413_/Y _414_/X _402_/X vssd1 vssd1 vccd1 vccd1 _418_/B sky130_fd_sc_hd__a221o_1
XFILLER_32_272 vssd1 vssd1 vccd1 vccd1 sky130_fd_sc_hd__decap_4
XFILLER_32_250 vssd1 vssd1 vccd1 vccd1 sky130_fd_sc_hd__fill_2
XFILLER_23_261 vssd1 vssd1 vccd1 vccd1 sky130_fd_sc_hd__decap_4
XFILLER_23_53 vssd1 vssd1 vccd1 vccd1 sky130_fd_sc_hd__decap_3
XFILLER_0_57 vssd1 vssd1 vccd1 vccd1 sky130_fd_sc_hd__decap_8
XFILLER_9_77 vssd1 vssd1 vccd1 vccd1 sky130_ef_sc_hd__decap_12
X_329_ _747_/Q vssd1 vssd1 vccd1 vccd1 _747_/D sky130_fd_sc_hd__inv_2
XFILLER_14_250 vssd1 vssd1 vccd1 vccd1 sky130_fd_sc_hd__fill_2
XFILLER_20_253 vssd1 vssd1 vccd1 vccd1 sky130_fd_sc_hd__fill_2
X_680_ _680_/A _680_/B vssd1 vssd1 vccd1 vccd1 _680_/Y sky130_fd_sc_hd__nand2_1
XFILLER_34_85 vssd1 vssd1 vccd1 vccd1 sky130_ef_sc_hd__decap_12
XFILLER_7_213 vssd1 vssd1 vccd1 vccd1 sky130_fd_sc_hd__decap_8
XFILLER_38_139 vssd1 vssd1 vccd1 vccd1 sky130_fd_sc_hd__fill_1
X_801_ _673_/Y _801_/D _588_/X vssd1 vssd1 vccd1 vccd1 _801_/Q sky130_fd_sc_hd__dfrtp_2
X_732_ _812_/CLK _732_/D vssd1 vssd1 vccd1 vccd1 _732_/Q sky130_fd_sc_hd__dfxtp_2
XFILLER_43_131 vssd1 vssd1 vccd1 vccd1 sky130_fd_sc_hd__decap_3
X_594_ _645_/A _594_/B vssd1 vssd1 vccd1 vccd1 _594_/X sky130_fd_sc_hd__xor2_2
X_663_ _778_/Q vssd1 vssd1 vccd1 vccd1 _663_/Y sky130_fd_sc_hd__inv_2
XFILLER_28_194 vssd1 vssd1 vccd1 vccd1 sky130_fd_sc_hd__fill_2
XFILLER_6_34 vssd1 vssd1 vccd1 vccd1 sky130_ef_sc_hd__decap_12
XTAP_337 vssd1 vccd1 sky130_fd_sc_hd__tapvpwrvgnd_1
XTAP_326 vssd1 vccd1 sky130_fd_sc_hd__tapvpwrvgnd_1
XTAP_315 vssd1 vccd1 sky130_fd_sc_hd__tapvpwrvgnd_1
XTAP_304 vssd1 vccd1 sky130_fd_sc_hd__tapvpwrvgnd_1
XFILLER_13_3 vssd1 vssd1 vccd1 vccd1 sky130_ef_sc_hd__decap_12
XFILLER_34_197 vssd1 vssd1 vccd1 vccd1 sky130_fd_sc_hd__decap_8
XFILLER_31_86 vssd1 vssd1 vccd1 vccd1 sky130_fd_sc_hd__fill_1
X_715_ _364_/A _715_/D _624_/Y vssd1 vssd1 vccd1 vccd1 _716_/D sky130_fd_sc_hd__dfrtp_1
X_577_ _578_/A _577_/B vssd1 vssd1 vccd1 vccd1 _577_/X sky130_fd_sc_hd__and2_1
XFILLER_31_156 vssd1 vssd1 vccd1 vccd1 sky130_ef_sc_hd__decap_12
X_646_ _749_/Q vssd1 vssd1 vccd1 vccd1 _646_/Y sky130_fd_sc_hd__inv_2
XFILLER_16_164 vssd1 vssd1 vccd1 vccd1 sky130_fd_sc_hd__fill_2
XFILLER_16_175 vssd1 vssd1 vccd1 vccd1 sky130_ef_sc_hd__decap_12
XFILLER_16_197 vssd1 vssd1 vccd1 vccd1 sky130_fd_sc_hd__fill_2
XTAP_134 vssd1 vccd1 sky130_fd_sc_hd__tapvpwrvgnd_1
XTAP_123 vssd1 vccd1 sky130_fd_sc_hd__tapvpwrvgnd_1
XTAP_112 vssd1 vccd1 sky130_fd_sc_hd__tapvpwrvgnd_1
XTAP_101 vssd1 vccd1 sky130_fd_sc_hd__tapvpwrvgnd_1
XTAP_145 vssd1 vccd1 sky130_fd_sc_hd__tapvpwrvgnd_1
XTAP_156 vssd1 vccd1 sky130_fd_sc_hd__tapvpwrvgnd_1
XTAP_167 vssd1 vccd1 sky130_fd_sc_hd__tapvpwrvgnd_1
XTAP_178 vssd1 vccd1 sky130_fd_sc_hd__tapvpwrvgnd_1
XTAP_189 vssd1 vccd1 sky130_fd_sc_hd__tapvpwrvgnd_1
XFILLER_39_278 vssd1 vssd1 vccd1 vccd1 sky130_fd_sc_hd__fill_2
XFILLER_39_267 vssd1 vssd1 vccd1 vccd1 sky130_fd_sc_hd__decap_8
X_500_ _575_/A0 _692_/Q _500_/S vssd1 vssd1 vccd1 vccd1 _692_/D sky130_fd_sc_hd__mux2_1
XFILLER_9_105 vssd1 vssd1 vccd1 vccd1 sky130_fd_sc_hd__decap_6
X_431_ _752_/Q _766_/Q vssd1 vssd1 vccd1 vccd1 _431_/Y sky130_fd_sc_hd__nand2_1
XFILLER_13_145 vssd1 vssd1 vccd1 vccd1 sky130_fd_sc_hd__decap_3
XFILLER_13_167 vssd1 vssd1 vccd1 vccd1 sky130_fd_sc_hd__fill_1
X_362_ _823_/Q vssd1 vssd1 vccd1 vccd1 _823_/D sky130_fd_sc_hd__inv_2
XFILLER_42_85 vssd1 vssd1 vccd1 vccd1 sky130_fd_sc_hd__fill_2
XFILLER_3_57 vssd1 vssd1 vccd1 vccd1 sky130_fd_sc_hd__decap_3
X_629_ _680_/A _679_/B vssd1 vssd1 vccd1 vccd1 _629_/Y sky130_fd_sc_hd__nand2_1
XFILLER_35_281 vssd1 vssd1 vccd1 vccd1 sky130_fd_sc_hd__fill_2
XFILLER_12_11 vssd1 vssd1 vccd1 vccd1 sky130_fd_sc_hd__fill_2
XFILLER_33_207 vssd1 vssd1 vccd1 vccd1 sky130_fd_sc_hd__decap_3
XFILLER_41_273 vssd1 vssd1 vccd1 vccd1 sky130_fd_sc_hd__decap_6
XFILLER_41_262 vssd1 vssd1 vccd1 vccd1 sky130_fd_sc_hd__decap_8
X_345_ _777_/Q vssd1 vssd1 vccd1 vccd1 _777_/D sky130_fd_sc_hd__inv_2
X_414_ _775_/Q _786_/Q vssd1 vssd1 vccd1 vccd1 _414_/X sky130_fd_sc_hd__or2_1
XFILLER_26_281 vssd1 vssd1 vccd1 vccd1 sky130_fd_sc_hd__fill_1
XFILLER_5_174 vssd1 vssd1 vccd1 vccd1 sky130_ef_sc_hd__decap_12
XFILLER_17_281 vssd1 vssd1 vccd1 vccd1 sky130_fd_sc_hd__fill_2
XFILLER_23_32 vssd1 vssd1 vccd1 vccd1 sky130_fd_sc_hd__decap_4
XFILLER_2_100 vssd1 vssd1 vccd1 vccd1 sky130_fd_sc_hd__decap_4
XFILLER_0_69 vssd1 vssd1 vccd1 vccd1 sky130_ef_sc_hd__decap_12
XFILLER_9_89 vssd1 vssd1 vccd1 vccd1 sky130_fd_sc_hd__decap_6
X_328_ _746_/Q vssd1 vssd1 vccd1 vccd1 _746_/D sky130_fd_sc_hd__inv_2
XFILLER_43_3 vssd1 vssd1 vccd1 vccd1 sky130_fd_sc_hd__decap_8
XFILLER_20_298 vssd1 vssd1 vccd1 vccd1 sky130_fd_sc_hd__fill_1
XFILLER_34_97 vssd1 vssd1 vccd1 vccd1 sky130_fd_sc_hd__decap_4
XFILLER_7_225 vssd1 vssd1 vccd1 vccd1 sky130_ef_sc_hd__decap_12
XFILLER_11_298 vssd1 vssd1 vccd1 vccd1 sky130_fd_sc_hd__fill_1
XFILLER_38_118 vssd1 vssd1 vccd1 vccd1 sky130_fd_sc_hd__fill_2
XFILLER_46_195 vssd1 vssd1 vccd1 vccd1 sky130_fd_sc_hd__fill_1
XFILLER_6_291 vssd1 vssd1 vccd1 vccd1 sky130_fd_sc_hd__decap_8
XFILLER_20_22 vssd1 vssd1 vccd1 vccd1 sky130_fd_sc_hd__decap_6
XFILLER_20_55 vssd1 vssd1 vccd1 vccd1 sky130_fd_sc_hd__decap_4
X_662_ _777_/Q vssd1 vssd1 vccd1 vccd1 _662_/Y sky130_fd_sc_hd__inv_2
X_800_ _672_/Y _800_/D _589_/X vssd1 vssd1 vccd1 vccd1 _800_/Q sky130_fd_sc_hd__dfrtp_2
X_731_ _812_/CLK _731_/D vssd1 vssd1 vccd1 vccd1 _731_/Q sky130_fd_sc_hd__dfxtp_2
X_593_ _670_/A _594_/B vssd1 vssd1 vccd1 vccd1 _593_/X sky130_fd_sc_hd__xor2_2
XFILLER_6_46 vssd1 vssd1 vccd1 vccd1 sky130_fd_sc_hd__fill_1
XTAP_338 vssd1 vccd1 sky130_fd_sc_hd__tapvpwrvgnd_1
XTAP_327 vssd1 vccd1 sky130_fd_sc_hd__tapvpwrvgnd_1
XTAP_316 vssd1 vccd1 sky130_fd_sc_hd__tapvpwrvgnd_1
XTAP_305 vssd1 vccd1 sky130_fd_sc_hd__tapvpwrvgnd_1
XFILLER_34_121 vssd1 vssd1 vccd1 vccd1 sky130_fd_sc_hd__decap_8
XFILLER_15_11 vssd1 vssd1 vccd1 vccd1 sky130_fd_sc_hd__fill_2
XFILLER_25_110 vssd1 vssd1 vccd1 vccd1 sky130_fd_sc_hd__fill_2
XFILLER_15_88 vssd1 vssd1 vccd1 vccd1 sky130_ef_sc_hd__decap_12
XFILLER_31_32 vssd1 vssd1 vccd1 vccd1 sky130_fd_sc_hd__decap_4
XFILLER_31_54 vssd1 vssd1 vccd1 vccd1 sky130_fd_sc_hd__fill_2
XFILLER_0_253 vssd1 vssd1 vccd1 vccd1 sky130_ef_sc_hd__decap_12
Xoutput8 _492_/Y vssd1 vssd1 vccd1 vccd1 io_out[0] sky130_fd_sc_hd__buf_4
Xoutput10 _479_/Y vssd1 vssd1 vccd1 vccd1 io_out[2] sky130_fd_sc_hd__buf_4
X_714_ _682_/A _714_/D _623_/Y vssd1 vssd1 vccd1 vccd1 _715_/D sky130_fd_sc_hd__dfstp_1
X_645_ _645_/A _645_/B vssd1 vssd1 vccd1 vccd1 _645_/Y sky130_fd_sc_hd__xnor2_2
XFILLER_0_297 vssd1 vssd1 vccd1 vccd1 sky130_fd_sc_hd__fill_2
X_576_ input6/X _816_/Q _576_/S vssd1 vssd1 vccd1 vccd1 _816_/D sky130_fd_sc_hd__mux2_1
XFILLER_31_124 vssd1 vssd1 vccd1 vccd1 sky130_fd_sc_hd__decap_4
XFILLER_16_187 vssd1 vssd1 vccd1 vccd1 sky130_fd_sc_hd__decap_8
Xclkbuf_1_0__f__183_ clkbuf_0__183_/X vssd1 vssd1 vccd1 vccd1 _467_/A1 sky130_fd_sc_hd__clkbuf_16
XFILLER_31_113 vssd1 vssd1 vccd1 vccd1 sky130_fd_sc_hd__fill_2
XFILLER_39_213 vssd1 vssd1 vccd1 vccd1 sky130_fd_sc_hd__decap_8
XTAP_135 vssd1 vccd1 sky130_fd_sc_hd__tapvpwrvgnd_1
XTAP_124 vssd1 vccd1 sky130_fd_sc_hd__tapvpwrvgnd_1
XTAP_113 vssd1 vccd1 sky130_fd_sc_hd__tapvpwrvgnd_1
XTAP_102 vssd1 vccd1 sky130_fd_sc_hd__tapvpwrvgnd_1
XTAP_146 vssd1 vccd1 sky130_fd_sc_hd__tapvpwrvgnd_1
XTAP_157 vssd1 vccd1 sky130_fd_sc_hd__tapvpwrvgnd_1
XTAP_168 vssd1 vccd1 sky130_fd_sc_hd__tapvpwrvgnd_1
XTAP_179 vssd1 vccd1 sky130_fd_sc_hd__tapvpwrvgnd_1
X_361_ _804_/Q vssd1 vssd1 vccd1 vccd1 _804_/D sky130_fd_sc_hd__inv_2
X_430_ _754_/Q _768_/Q vssd1 vssd1 vccd1 vccd1 _441_/C sky130_fd_sc_hd__xor2_1
XFILLER_13_113 vssd1 vssd1 vccd1 vccd1 sky130_ef_sc_hd__decap_12
XFILLER_13_179 vssd1 vssd1 vccd1 vccd1 sky130_ef_sc_hd__decap_12
XFILLER_3_25 vssd1 vssd1 vccd1 vccd1 sky130_fd_sc_hd__decap_4
X_628_ _680_/A _679_/B vssd1 vssd1 vccd1 vccd1 _628_/Y sky130_fd_sc_hd__nand2_1
X_559_ _818_/D _790_/Q _562_/S vssd1 vssd1 vccd1 vccd1 _790_/D sky130_fd_sc_hd__mux2_1
XFILLER_35_260 vssd1 vssd1 vccd1 vccd1 sky130_ef_sc_hd__decap_12
XFILLER_10_138 vssd1 vssd1 vccd1 vccd1 sky130_fd_sc_hd__fill_2
XFILLER_33_219 vssd1 vssd1 vccd1 vccd1 sky130_fd_sc_hd__decap_4
X_413_ _775_/Q _786_/Q vssd1 vssd1 vccd1 vccd1 _413_/Y sky130_fd_sc_hd__nand2_1
XFILLER_41_252 vssd1 vssd1 vccd1 vccd1 sky130_fd_sc_hd__decap_4
X_344_ _776_/Q vssd1 vssd1 vccd1 vccd1 _776_/D sky130_fd_sc_hd__inv_2
XFILLER_5_186 vssd1 vssd1 vccd1 vccd1 sky130_ef_sc_hd__decap_12
XFILLER_3_3 vssd1 vssd1 vccd1 vccd1 sky130_ef_sc_hd__decap_12
XFILLER_0_15 vssd1 vssd1 vccd1 vccd1 sky130_ef_sc_hd__decap_12
XFILLER_9_57 vssd1 vssd1 vccd1 vccd1 sky130_fd_sc_hd__decap_8
X_327_ _745_/Q vssd1 vssd1 vccd1 vccd1 _745_/D sky130_fd_sc_hd__inv_2
XFILLER_36_3 vssd1 vssd1 vccd1 vccd1 sky130_fd_sc_hd__decap_6
XFILLER_34_43 vssd1 vssd1 vccd1 vccd1 sky130_fd_sc_hd__decap_3
XFILLER_18_66 vssd1 vssd1 vccd1 vccd1 sky130_ef_sc_hd__decap_12
XFILLER_11_233 vssd1 vssd1 vccd1 vccd1 sky130_fd_sc_hd__decap_3
XFILLER_11_277 vssd1 vssd1 vccd1 vccd1 sky130_fd_sc_hd__decap_3
XFILLER_46_141 vssd1 vssd1 vccd1 vccd1 sky130_ef_sc_hd__decap_12
XFILLER_1_80 vssd1 vssd1 vccd1 vccd1 sky130_ef_sc_hd__decap_12
XFILLER_43_100 vssd1 vssd1 vccd1 vccd1 sky130_ef_sc_hd__decap_12
X_592_ _670_/A _594_/B vssd1 vssd1 vccd1 vccd1 _592_/X sky130_fd_sc_hd__xor2_2
X_661_ _776_/Q vssd1 vssd1 vccd1 vccd1 _661_/Y sky130_fd_sc_hd__inv_2
X_730_ hold3/A _730_/D vssd1 vssd1 vccd1 vccd1 _730_/Q sky130_fd_sc_hd__dfxtp_4
XFILLER_28_141 vssd1 vssd1 vccd1 vccd1 sky130_fd_sc_hd__fill_2
XFILLER_28_152 vssd1 vssd1 vccd1 vccd1 sky130_fd_sc_hd__decap_4
XFILLER_28_174 vssd1 vssd1 vccd1 vccd1 sky130_ef_sc_hd__decap_12
XFILLER_29_43 vssd1 vssd1 vccd1 vccd1 sky130_ef_sc_hd__decap_12
XFILLER_45_53 vssd1 vssd1 vccd1 vccd1 sky130_fd_sc_hd__decap_3
XTAP_328 vssd1 vccd1 sky130_fd_sc_hd__tapvpwrvgnd_1
XTAP_317 vssd1 vccd1 sky130_fd_sc_hd__tapvpwrvgnd_1
XTAP_306 vssd1 vccd1 sky130_fd_sc_hd__tapvpwrvgnd_1
XFILLER_15_23 vssd1 vssd1 vccd1 vccd1 sky130_fd_sc_hd__decap_4
XFILLER_25_166 vssd1 vssd1 vccd1 vccd1 sky130_fd_sc_hd__fill_2
XFILLER_25_177 vssd1 vssd1 vccd1 vccd1 sky130_fd_sc_hd__fill_1
Xoutput9 _473_/Y vssd1 vssd1 vccd1 vccd1 io_out[1] sky130_fd_sc_hd__buf_4
XFILLER_0_221 vssd1 vssd1 vccd1 vccd1 sky130_fd_sc_hd__decap_3
XFILLER_0_265 vssd1 vssd1 vccd1 vccd1 sky130_ef_sc_hd__decap_12
Xoutput11 _484_/Y vssd1 vssd1 vccd1 vccd1 io_out[3] sky130_fd_sc_hd__buf_4
X_575_ _575_/A0 _815_/Q _576_/S vssd1 vssd1 vccd1 vccd1 _815_/D sky130_fd_sc_hd__mux2_1
X_713_ _682_/A _713_/D _622_/Y vssd1 vssd1 vccd1 vccd1 _714_/D sky130_fd_sc_hd__dfrtp_1
X_644_ _747_/Q vssd1 vssd1 vccd1 vccd1 _644_/Y sky130_fd_sc_hd__inv_2
XFILLER_31_169 vssd1 vssd1 vccd1 vccd1 sky130_fd_sc_hd__fill_2
XTAP_114 vssd1 vccd1 sky130_fd_sc_hd__tapvpwrvgnd_1
XTAP_103 vssd1 vccd1 sky130_fd_sc_hd__tapvpwrvgnd_1
XFILLER_39_225 vssd1 vssd1 vccd1 vccd1 sky130_fd_sc_hd__fill_2
XTAP_136 vssd1 vccd1 sky130_fd_sc_hd__tapvpwrvgnd_1
XTAP_125 vssd1 vccd1 sky130_fd_sc_hd__tapvpwrvgnd_1
XTAP_147 vssd1 vccd1 sky130_fd_sc_hd__tapvpwrvgnd_1
XTAP_158 vssd1 vccd1 sky130_fd_sc_hd__tapvpwrvgnd_1
XTAP_169 vssd1 vccd1 sky130_fd_sc_hd__tapvpwrvgnd_1
XFILLER_22_125 vssd1 vssd1 vccd1 vccd1 sky130_fd_sc_hd__decap_4
XFILLER_26_11 vssd1 vssd1 vccd1 vccd1 sky130_fd_sc_hd__fill_2
X_360_ _803_/Q vssd1 vssd1 vccd1 vccd1 _803_/D sky130_fd_sc_hd__inv_2
XFILLER_13_125 vssd1 vssd1 vccd1 vccd1 sky130_ef_sc_hd__decap_12
XFILLER_13_169 vssd1 vssd1 vccd1 vccd1 sky130_fd_sc_hd__decap_6
XFILLER_36_206 vssd1 vssd1 vccd1 vccd1 sky130_ef_sc_hd__decap_12
XFILLER_3_15 vssd1 vssd1 vccd1 vccd1 sky130_fd_sc_hd__decap_6
XFILLER_44_261 vssd1 vssd1 vccd1 vccd1 sky130_fd_sc_hd__fill_2
X_558_ _563_/A _578_/B vssd1 vssd1 vccd1 vccd1 _562_/S sky130_fd_sc_hd__nand2_4
X_627_ _680_/A _679_/B vssd1 vssd1 vccd1 vccd1 _627_/Y sky130_fd_sc_hd__nand2_1
XFILLER_8_195 vssd1 vssd1 vccd1 vccd1 sky130_fd_sc_hd__fill_1
X_489_ _489_/A _489_/B vssd1 vssd1 vccd1 vccd1 _489_/X sky130_fd_sc_hd__xor2_1
XFILLER_42_209 vssd1 vssd1 vccd1 vccd1 sky130_fd_sc_hd__decap_8
XFILLER_35_272 vssd1 vssd1 vccd1 vccd1 sky130_fd_sc_hd__fill_1
XFILLER_12_68 vssd1 vssd1 vccd1 vccd1 sky130_ef_sc_hd__decap_12
X_412_ _412_/A _412_/B _412_/C _412_/D vssd1 vssd1 vccd1 vccd1 _418_/A sky130_fd_sc_hd__or4_1
XFILLER_26_250 vssd1 vssd1 vccd1 vccd1 sky130_fd_sc_hd__fill_2
X_343_ _775_/Q vssd1 vssd1 vccd1 vccd1 _775_/D sky130_fd_sc_hd__inv_2
XFILLER_5_198 vssd1 vssd1 vccd1 vccd1 sky130_ef_sc_hd__decap_12
XFILLER_32_297 vssd1 vssd1 vccd1 vccd1 sky130_fd_sc_hd__fill_2
XFILLER_32_264 vssd1 vssd1 vccd1 vccd1 sky130_fd_sc_hd__decap_4
XFILLER_32_253 vssd1 vssd1 vccd1 vccd1 sky130_fd_sc_hd__fill_2
XFILLER_32_220 vssd1 vssd1 vccd1 vccd1 sky130_ef_sc_hd__decap_12
XFILLER_17_250 vssd1 vssd1 vccd1 vccd1 sky130_fd_sc_hd__decap_6
XFILLER_23_45 vssd1 vssd1 vccd1 vccd1 sky130_fd_sc_hd__decap_8
XFILLER_23_286 vssd1 vssd1 vccd1 vccd1 sky130_ef_sc_hd__decap_12
XFILLER_0_27 vssd1 vssd1 vccd1 vccd1 sky130_fd_sc_hd__fill_1
X_326_ _759_/Q vssd1 vssd1 vccd1 vccd1 _759_/D sky130_fd_sc_hd__inv_2
XFILLER_14_253 vssd1 vssd1 vccd1 vccd1 sky130_ef_sc_hd__decap_12
XFILLER_14_297 vssd1 vssd1 vccd1 vccd1 sky130_fd_sc_hd__fill_2
XFILLER_29_3 vssd1 vssd1 vccd1 vccd1 sky130_ef_sc_hd__decap_12
XFILLER_18_78 vssd1 vssd1 vccd1 vccd1 sky130_fd_sc_hd__decap_6
XFILLER_46_197 vssd1 vssd1 vccd1 vccd1 sky130_ef_sc_hd__decap_12
XFILLER_46_175 vssd1 vssd1 vccd1 vccd1 sky130_ef_sc_hd__decap_12
XFILLER_46_153 vssd1 vssd1 vccd1 vccd1 sky130_ef_sc_hd__decap_12
X_309_ _730_/Q vssd1 vssd1 vccd1 vccd1 _496_/D sky130_fd_sc_hd__inv_2
XFILLER_1_92 vssd1 vssd1 vccd1 vccd1 sky130_fd_sc_hd__fill_2
XFILLER_45_32 vssd1 vssd1 vccd1 vccd1 sky130_fd_sc_hd__decap_4
XFILLER_43_123 vssd1 vssd1 vccd1 vccd1 sky130_fd_sc_hd__decap_8
X_591_ _670_/A _594_/B vssd1 vssd1 vccd1 vccd1 _591_/X sky130_fd_sc_hd__xor2_2
XFILLER_28_186 vssd1 vssd1 vccd1 vccd1 sky130_fd_sc_hd__decap_8
XFILLER_28_197 vssd1 vssd1 vccd1 vccd1 sky130_fd_sc_hd__decap_6
XFILLER_29_55 vssd1 vssd1 vccd1 vccd1 sky130_fd_sc_hd__fill_1
X_660_ _775_/Q vssd1 vssd1 vccd1 vccd1 _660_/Y sky130_fd_sc_hd__inv_2
XFILLER_45_76 vssd1 vssd1 vccd1 vccd1 sky130_fd_sc_hd__decap_4
XFILLER_6_26 vssd1 vssd1 vccd1 vccd1 sky130_fd_sc_hd__fill_2
XTAP_329 vssd1 vccd1 sky130_fd_sc_hd__tapvpwrvgnd_1
XTAP_318 vssd1 vccd1 sky130_fd_sc_hd__tapvpwrvgnd_1
XTAP_307 vssd1 vccd1 sky130_fd_sc_hd__tapvpwrvgnd_1
XFILLER_3_274 vssd1 vssd1 vccd1 vccd1 sky130_fd_sc_hd__decap_6
X_789_ _793_/CLK _789_/D vssd1 vssd1 vccd1 vccd1 _789_/Q sky130_fd_sc_hd__dfxtp_1
XFILLER_40_159 vssd1 vssd1 vccd1 vccd1 sky130_ef_sc_hd__decap_12
XFILLER_15_57 vssd1 vssd1 vccd1 vccd1 sky130_fd_sc_hd__decap_8
Xoutput12 _489_/X vssd1 vssd1 vccd1 vccd1 io_out[4] sky130_fd_sc_hd__buf_4
X_712_ _682_/A _712_/D _612_/A vssd1 vssd1 vccd1 vccd1 _713_/D sky130_fd_sc_hd__dfstp_1
XFILLER_0_277 vssd1 vssd1 vccd1 vccd1 sky130_fd_sc_hd__decap_3
X_574_ input4/X _814_/Q _576_/S vssd1 vssd1 vccd1 vccd1 _814_/D sky130_fd_sc_hd__mux2_1
X_643_ _746_/Q vssd1 vssd1 vccd1 vccd1 _643_/Y sky130_fd_sc_hd__inv_2
XFILLER_31_104 vssd1 vssd1 vccd1 vccd1 sky130_fd_sc_hd__decap_8
XTAP_137 vssd1 vccd1 sky130_fd_sc_hd__tapvpwrvgnd_1
XTAP_126 vssd1 vccd1 sky130_fd_sc_hd__tapvpwrvgnd_1
XTAP_115 vssd1 vccd1 sky130_fd_sc_hd__tapvpwrvgnd_1
XTAP_104 vssd1 vccd1 sky130_fd_sc_hd__tapvpwrvgnd_1
XTAP_148 vssd1 vccd1 sky130_fd_sc_hd__tapvpwrvgnd_1
XFILLER_11_3 vssd1 vssd1 vccd1 vccd1 sky130_fd_sc_hd__decap_8
XTAP_159 vssd1 vccd1 sky130_fd_sc_hd__tapvpwrvgnd_1
XFILLER_42_77 vssd1 vssd1 vccd1 vccd1 sky130_fd_sc_hd__decap_6
XFILLER_13_137 vssd1 vssd1 vccd1 vccd1 sky130_fd_sc_hd__decap_8
XFILLER_21_181 vssd1 vssd1 vccd1 vccd1 sky130_fd_sc_hd__decap_4
XFILLER_36_218 vssd1 vssd1 vccd1 vccd1 sky130_ef_sc_hd__decap_12
XFILLER_29_281 vssd1 vssd1 vccd1 vccd1 sky130_ef_sc_hd__decap_12
XFILLER_44_251 vssd1 vssd1 vccd1 vccd1 sky130_fd_sc_hd__fill_1
X_557_ input6/X _789_/Q _557_/S vssd1 vssd1 vccd1 vccd1 _789_/D sky130_fd_sc_hd__mux2_1
X_626_ _680_/A _679_/B vssd1 vssd1 vccd1 vccd1 _626_/Y sky130_fd_sc_hd__nand2_1
X_488_ _483_/A _483_/B _480_/X _482_/B vssd1 vssd1 vccd1 vccd1 _489_/B sky130_fd_sc_hd__o31a_2
XFILLER_8_130 vssd1 vssd1 vccd1 vccd1 sky130_fd_sc_hd__decap_8
XFILLER_8_141 vssd1 vssd1 vccd1 vccd1 sky130_ef_sc_hd__decap_12
XFILLER_12_170 vssd1 vssd1 vccd1 vccd1 sky130_fd_sc_hd__fill_1
XFILLER_37_11 vssd1 vssd1 vccd1 vccd1 sky130_fd_sc_hd__fill_1
XFILLER_41_210 vssd1 vssd1 vccd1 vccd1 sky130_ef_sc_hd__decap_12
X_342_ _774_/Q vssd1 vssd1 vccd1 vccd1 _774_/D sky130_fd_sc_hd__inv_2
X_411_ _777_/Q _788_/Q vssd1 vssd1 vccd1 vccd1 _412_/D sky130_fd_sc_hd__xor2_1
X_609_ _612_/A _612_/B vssd1 vssd1 vccd1 vccd1 _609_/Y sky130_fd_sc_hd__xnor2_2
XFILLER_32_232 vssd1 vssd1 vccd1 vccd1 sky130_fd_sc_hd__fill_2
XFILLER_23_210 vssd1 vssd1 vccd1 vccd1 sky130_fd_sc_hd__fill_1
XFILLER_23_221 vssd1 vssd1 vccd1 vccd1 sky130_fd_sc_hd__decap_3
XFILLER_23_57 vssd1 vssd1 vccd1 vccd1 sky130_fd_sc_hd__fill_2
XFILLER_23_68 vssd1 vssd1 vccd1 vccd1 sky130_fd_sc_hd__fill_1
XFILLER_23_298 vssd1 vssd1 vccd1 vccd1 sky130_fd_sc_hd__fill_1
XFILLER_2_147 vssd1 vssd1 vccd1 vccd1 sky130_fd_sc_hd__fill_1
XFILLER_2_125 vssd1 vssd1 vccd1 vccd1 sky130_ef_sc_hd__decap_12
X_325_ _758_/Q vssd1 vssd1 vccd1 vccd1 _758_/D sky130_fd_sc_hd__inv_2
XFILLER_14_265 vssd1 vssd1 vccd1 vccd1 sky130_ef_sc_hd__decap_12
XFILLER_20_235 vssd1 vssd1 vccd1 vccd1 sky130_fd_sc_hd__decap_4
XFILLER_34_67 vssd1 vssd1 vccd1 vccd1 sky130_ef_sc_hd__decap_12
XFILLER_11_257 vssd1 vssd1 vccd1 vccd1 sky130_ef_sc_hd__decap_12
XFILLER_7_206 vssd1 vssd1 vccd1 vccd1 sky130_fd_sc_hd__decap_4
XFILLER_46_187 vssd1 vssd1 vccd1 vccd1 sky130_fd_sc_hd__decap_8
XFILLER_46_165 vssd1 vssd1 vccd1 vccd1 sky130_fd_sc_hd__decap_3
X_308_ hold3/A vssd1 vssd1 vccd1 vccd1 _308_/Y sky130_fd_sc_hd__inv_2
XFILLER_41_3 vssd1 vssd1 vccd1 vccd1 sky130_ef_sc_hd__decap_12
XFILLER_37_165 vssd1 vssd1 vccd1 vccd1 sky130_fd_sc_hd__decap_3
XFILLER_37_187 vssd1 vssd1 vccd1 vccd1 sky130_ef_sc_hd__decap_12
XFILLER_43_113 vssd1 vssd1 vccd1 vccd1 sky130_fd_sc_hd__decap_6
X_590_ _670_/A _670_/B vssd1 vssd1 vccd1 vccd1 _590_/X sky130_fd_sc_hd__xor2_2
XTAP_319 vssd1 vccd1 sky130_fd_sc_hd__tapvpwrvgnd_1
XTAP_308 vssd1 vccd1 sky130_fd_sc_hd__tapvpwrvgnd_1
X_788_ _678_/A _788_/D vssd1 vssd1 vccd1 vccd1 _788_/Q sky130_fd_sc_hd__dfxtp_1
XFILLER_3_297 vssd1 vssd1 vccd1 vccd1 sky130_fd_sc_hd__fill_2
XFILLER_20_8 vssd1 vssd1 vccd1 vccd1 sky130_fd_sc_hd__decap_4
XFILLER_25_102 vssd1 vssd1 vccd1 vccd1 sky130_fd_sc_hd__fill_1
XFILLER_25_113 vssd1 vssd1 vccd1 vccd1 sky130_fd_sc_hd__fill_2
XFILLER_25_124 vssd1 vssd1 vccd1 vccd1 sky130_fd_sc_hd__decap_4
XFILLER_40_127 vssd1 vssd1 vccd1 vccd1 sky130_ef_sc_hd__decap_12
XFILLER_31_24 vssd1 vssd1 vccd1 vccd1 sky130_fd_sc_hd__decap_4
Xoutput13 _490_/X vssd1 vssd1 vccd1 vccd1 io_out[5] sky130_fd_sc_hd__buf_4
XFILLER_31_57 vssd1 vssd1 vccd1 vccd1 sky130_fd_sc_hd__fill_2
X_711_ _682_/A _711_/D vssd1 vssd1 vccd1 vccd1 _712_/D sky130_fd_sc_hd__dfxtp_1
XFILLER_0_289 vssd1 vssd1 vccd1 vccd1 sky130_fd_sc_hd__fill_2
X_642_ _745_/Q vssd1 vssd1 vccd1 vccd1 _642_/Y sky130_fd_sc_hd__inv_2
X_573_ _818_/D _813_/Q _576_/S vssd1 vssd1 vccd1 vccd1 _813_/D sky130_fd_sc_hd__mux2_1
XFILLER_16_102 vssd1 vssd1 vccd1 vccd1 sky130_fd_sc_hd__fill_2
XTAP_138 vssd1 vccd1 sky130_fd_sc_hd__tapvpwrvgnd_1
XTAP_127 vssd1 vccd1 sky130_fd_sc_hd__tapvpwrvgnd_1
XTAP_116 vssd1 vccd1 sky130_fd_sc_hd__tapvpwrvgnd_1
XTAP_105 vssd1 vccd1 sky130_fd_sc_hd__tapvpwrvgnd_1
XTAP_149 vssd1 vccd1 sky130_fd_sc_hd__tapvpwrvgnd_1
XFILLER_22_138 vssd1 vssd1 vccd1 vccd1 sky130_fd_sc_hd__fill_2
X_625_ _680_/A _679_/B vssd1 vssd1 vccd1 vccd1 _625_/Y sky130_fd_sc_hd__nand2_1
XFILLER_29_260 vssd1 vssd1 vccd1 vccd1 sky130_fd_sc_hd__decap_4
XFILLER_29_293 vssd1 vssd1 vccd1 vccd1 sky130_fd_sc_hd__decap_6
X_556_ input5/X _788_/Q _557_/S vssd1 vssd1 vccd1 vccd1 _788_/D sky130_fd_sc_hd__mux2_1
XFILLER_12_160 vssd1 vssd1 vccd1 vccd1 sky130_fd_sc_hd__fill_1