* NGSPICE file created from tt2_tholin_diceroll.ext - technology: sky130B

* Black-box entry subcircuit for sky130_fd_sc_hd__fill_2 abstract view
.subckt sky130_fd_sc_hd__fill_2 VGND VNB VPB VPWR
.ends

* Black-box entry subcircuit for sky130_fd_sc_hd__decap_6 abstract view
.subckt sky130_fd_sc_hd__decap_6 VGND VNB VPB VPWR
.ends

* Black-box entry subcircuit for sky130_fd_sc_hd__decap_4 abstract view
.subckt sky130_fd_sc_hd__decap_4 VGND VNB VPB VPWR
.ends

* Black-box entry subcircuit for sky130_fd_sc_hd__o2bb2a_1 abstract view
.subckt sky130_fd_sc_hd__o2bb2a_1 A1_N A2_N B1 B2 VGND VNB VPB VPWR X
.ends

* Black-box entry subcircuit for sky130_fd_sc_hd__a22o_1 abstract view
.subckt sky130_fd_sc_hd__a22o_1 A1 A2 B1 B2 VGND VNB VPB VPWR X
.ends

* Black-box entry subcircuit for sky130_fd_sc_hd__clkbuf_1 abstract view
.subckt sky130_fd_sc_hd__clkbuf_1 A VGND VNB VPB VPWR X
.ends

* Black-box entry subcircuit for sky130_fd_sc_hd__a211o_1 abstract view
.subckt sky130_fd_sc_hd__a211o_1 A1 A2 B1 C1 VGND VNB VPB VPWR X
.ends

* Black-box entry subcircuit for sky130_fd_sc_hd__a41o_1 abstract view
.subckt sky130_fd_sc_hd__a41o_1 A1 A2 A3 A4 B1 VGND VNB VPB VPWR X
.ends

* Black-box entry subcircuit for sky130_fd_sc_hd__a31o_1 abstract view
.subckt sky130_fd_sc_hd__a31o_1 A1 A2 A3 B1 VGND VNB VPB VPWR X
.ends

* Black-box entry subcircuit for sky130_fd_sc_hd__fill_1 abstract view
.subckt sky130_fd_sc_hd__fill_1 VGND VNB VPB VPWR
.ends

* Black-box entry subcircuit for sky130_fd_sc_hd__or2_1 abstract view
.subckt sky130_fd_sc_hd__or2_1 A B VGND VNB VPB VPWR X
.ends

* Black-box entry subcircuit for sky130_fd_sc_hd__or4_1 abstract view
.subckt sky130_fd_sc_hd__or4_1 A B C D VGND VNB VPB VPWR X
.ends

* Black-box entry subcircuit for sky130_fd_sc_hd__decap_8 abstract view
.subckt sky130_fd_sc_hd__decap_8 VGND VNB VPB VPWR
.ends

* Black-box entry subcircuit for sky130_fd_sc_hd__decap_3 abstract view
.subckt sky130_fd_sc_hd__decap_3 VGND VNB VPB VPWR
.ends

* Black-box entry subcircuit for sky130_ef_sc_hd__decap_12 abstract view
.subckt sky130_ef_sc_hd__decap_12 VGND VNB VPB VPWR
.ends

* Black-box entry subcircuit for sky130_fd_sc_hd__buf_2 abstract view
.subckt sky130_fd_sc_hd__buf_2 A VGND VNB VPB VPWR X
.ends

* Black-box entry subcircuit for sky130_fd_sc_hd__tapvpwrvgnd_1 abstract view
.subckt sky130_fd_sc_hd__tapvpwrvgnd_1 VGND VPWR
.ends

* Black-box entry subcircuit for sky130_fd_sc_hd__nor2_1 abstract view
.subckt sky130_fd_sc_hd__nor2_1 A B VGND VNB VPB VPWR Y
.ends

* Black-box entry subcircuit for sky130_fd_sc_hd__or3_1 abstract view
.subckt sky130_fd_sc_hd__or3_1 A B C VGND VNB VPB VPWR X
.ends

* Black-box entry subcircuit for sky130_fd_sc_hd__and2_1 abstract view
.subckt sky130_fd_sc_hd__and2_1 A B VGND VNB VPB VPWR X
.ends

* Black-box entry subcircuit for sky130_fd_sc_hd__and4_1 abstract view
.subckt sky130_fd_sc_hd__and4_1 A B C D VGND VNB VPB VPWR X
.ends

* Black-box entry subcircuit for sky130_fd_sc_hd__inv_2 abstract view
.subckt sky130_fd_sc_hd__inv_2 A VGND VNB VPB VPWR Y
.ends

* Black-box entry subcircuit for sky130_fd_sc_hd__o21a_1 abstract view
.subckt sky130_fd_sc_hd__o21a_1 A1 A2 B1 VGND VNB VPB VPWR X
.ends

* Black-box entry subcircuit for sky130_fd_sc_hd__a2111o_1 abstract view
.subckt sky130_fd_sc_hd__a2111o_1 A1 A2 B1 C1 D1 VGND VNB VPB VPWR X
.ends

* Black-box entry subcircuit for sky130_fd_sc_hd__mux2_1 abstract view
.subckt sky130_fd_sc_hd__mux2_1 A0 A1 S VGND VNB VPB VPWR X
.ends

* Black-box entry subcircuit for sky130_fd_sc_hd__a21oi_1 abstract view
.subckt sky130_fd_sc_hd__a21oi_1 A1 A2 B1 VGND VNB VPB VPWR Y
.ends

* Black-box entry subcircuit for sky130_fd_sc_hd__xnor2_1 abstract view
.subckt sky130_fd_sc_hd__xnor2_1 A B VGND VNB VPB VPWR Y
.ends

* Black-box entry subcircuit for sky130_fd_sc_hd__and3_1 abstract view
.subckt sky130_fd_sc_hd__and3_1 A B C VGND VNB VPB VPWR X
.ends

* Black-box entry subcircuit for sky130_fd_sc_hd__nor2b_2 abstract view
.subckt sky130_fd_sc_hd__nor2b_2 A B_N VGND VNB VPB VPWR Y
.ends

* Black-box entry subcircuit for sky130_fd_sc_hd__a21oi_2 abstract view
.subckt sky130_fd_sc_hd__a21oi_2 A1 A2 B1 VGND VNB VPB VPWR Y
.ends

* Black-box entry subcircuit for sky130_fd_sc_hd__xor2_1 abstract view
.subckt sky130_fd_sc_hd__xor2_1 A B VGND VNB VPB VPWR X
.ends

* Black-box entry subcircuit for sky130_fd_sc_hd__dfxtp_1 abstract view
.subckt sky130_fd_sc_hd__dfxtp_1 CLK D VGND VNB VPB VPWR Q
.ends

* Black-box entry subcircuit for sky130_fd_sc_hd__or2b_1 abstract view
.subckt sky130_fd_sc_hd__or2b_1 A B_N VGND VNB VPB VPWR X
.ends

* Black-box entry subcircuit for sky130_fd_sc_hd__diode_2 abstract view
.subckt sky130_fd_sc_hd__diode_2 DIODE VGND VNB VPB VPWR
.ends

* Black-box entry subcircuit for sky130_fd_sc_hd__and4b_1 abstract view
.subckt sky130_fd_sc_hd__and4b_1 A_N B C D VGND VNB VPB VPWR X
.ends

* Black-box entry subcircuit for sky130_fd_sc_hd__dfxtp_2 abstract view
.subckt sky130_fd_sc_hd__dfxtp_2 CLK D VGND VNB VPB VPWR Q
.ends

* Black-box entry subcircuit for sky130_fd_sc_hd__clkbuf_2 abstract view
.subckt sky130_fd_sc_hd__clkbuf_2 A VGND VNB VPB VPWR X
.ends

* Black-box entry subcircuit for sky130_fd_sc_hd__clkinv_2 abstract view
.subckt sky130_fd_sc_hd__clkinv_2 A VGND VNB VPB VPWR Y
.ends

* Black-box entry subcircuit for sky130_fd_sc_hd__nand2_1 abstract view
.subckt sky130_fd_sc_hd__nand2_1 A B VGND VNB VPB VPWR Y
.ends

* Black-box entry subcircuit for sky130_fd_sc_hd__nor3_1 abstract view
.subckt sky130_fd_sc_hd__nor3_1 A B C VGND VNB VPB VPWR Y
.ends

* Black-box entry subcircuit for sky130_fd_sc_hd__clkbuf_16 abstract view
.subckt sky130_fd_sc_hd__clkbuf_16 A VGND VNB VPB VPWR X
.ends

* Black-box entry subcircuit for sky130_fd_sc_hd__o21ba_1 abstract view
.subckt sky130_fd_sc_hd__o21ba_1 A1 A2 B1_N VGND VNB VPB VPWR X
.ends

* Black-box entry subcircuit for sky130_fd_sc_hd__a21o_1 abstract view
.subckt sky130_fd_sc_hd__a21o_1 A1 A2 B1 VGND VNB VPB VPWR X
.ends

* Black-box entry subcircuit for sky130_fd_sc_hd__a21bo_1 abstract view
.subckt sky130_fd_sc_hd__a21bo_1 A1 A2 B1_N VGND VNB VPB VPWR X
.ends

* Black-box entry subcircuit for sky130_fd_sc_hd__and2b_1 abstract view
.subckt sky130_fd_sc_hd__and2b_1 A_N B VGND VNB VPB VPWR X
.ends

* Black-box entry subcircuit for sky130_fd_sc_hd__a211oi_1 abstract view
.subckt sky130_fd_sc_hd__a211oi_1 A1 A2 B1 C1 VGND VNB VPB VPWR Y
.ends

* Black-box entry subcircuit for sky130_fd_sc_hd__a31oi_1 abstract view
.subckt sky130_fd_sc_hd__a31oi_1 A1 A2 A3 B1 VGND VNB VPB VPWR Y
.ends

* Black-box entry subcircuit for sky130_fd_sc_hd__nor2b_1 abstract view
.subckt sky130_fd_sc_hd__nor2b_1 A B_N VGND VNB VPB VPWR Y
.ends

* Black-box entry subcircuit for sky130_fd_sc_hd__dlymetal6s2s_1 abstract view
.subckt sky130_fd_sc_hd__dlymetal6s2s_1 A VGND VNB VPB VPWR X
.ends

* Black-box entry subcircuit for sky130_fd_sc_hd__o211a_1 abstract view
.subckt sky130_fd_sc_hd__o211a_1 A1 A2 B1 C1 VGND VNB VPB VPWR X
.ends

* Black-box entry subcircuit for sky130_fd_sc_hd__nand3b_1 abstract view
.subckt sky130_fd_sc_hd__nand3b_1 A_N B C VGND VNB VPB VPWR Y
.ends

* Black-box entry subcircuit for sky130_fd_sc_hd__a32o_1 abstract view
.subckt sky130_fd_sc_hd__a32o_1 A1 A2 A3 B1 B2 VGND VNB VPB VPWR X
.ends

* Black-box entry subcircuit for sky130_fd_sc_hd__and3b_1 abstract view
.subckt sky130_fd_sc_hd__and3b_1 A_N B C VGND VNB VPB VPWR X
.ends

* Black-box entry subcircuit for sky130_fd_sc_hd__a21boi_1 abstract view
.subckt sky130_fd_sc_hd__a21boi_1 A1 A2 B1_N VGND VNB VPB VPWR Y
.ends

* Black-box entry subcircuit for sky130_fd_sc_hd__or4_2 abstract view
.subckt sky130_fd_sc_hd__or4_2 A B C D VGND VNB VPB VPWR X
.ends

* Black-box entry subcircuit for sky130_fd_sc_hd__a211oi_4 abstract view
.subckt sky130_fd_sc_hd__a211oi_4 A1 A2 B1 C1 VGND VNB VPB VPWR Y
.ends

* Black-box entry subcircuit for sky130_fd_sc_hd__nand4b_1 abstract view
.subckt sky130_fd_sc_hd__nand4b_1 A_N B C D VGND VNB VPB VPWR Y
.ends

* Black-box entry subcircuit for sky130_fd_sc_hd__nor4_1 abstract view
.subckt sky130_fd_sc_hd__nor4_1 A B C D VGND VNB VPB VPWR Y
.ends

* Black-box entry subcircuit for sky130_fd_sc_hd__clkbuf_4 abstract view
.subckt sky130_fd_sc_hd__clkbuf_4 A VGND VNB VPB VPWR X
.ends

* Black-box entry subcircuit for sky130_fd_sc_hd__nand2b_2 abstract view
.subckt sky130_fd_sc_hd__nand2b_2 A_N B VGND VNB VPB VPWR Y
.ends

* Black-box entry subcircuit for sky130_fd_sc_hd__a31oi_2 abstract view
.subckt sky130_fd_sc_hd__a31oi_2 A1 A2 A3 B1 VGND VNB VPB VPWR Y
.ends

* Black-box entry subcircuit for sky130_fd_sc_hd__nand3_1 abstract view
.subckt sky130_fd_sc_hd__nand3_1 A B C VGND VNB VPB VPWR Y
.ends

* Black-box entry subcircuit for sky130_fd_sc_hd__and4bb_2 abstract view
.subckt sky130_fd_sc_hd__and4bb_2 A_N B_N C D VGND VNB VPB VPWR X
.ends

* Black-box entry subcircuit for sky130_fd_sc_hd__nor3b_1 abstract view
.subckt sky130_fd_sc_hd__nor3b_1 A B C_N VGND VNB VPB VPWR Y
.ends

* Black-box entry subcircuit for sky130_fd_sc_hd__or3b_1 abstract view
.subckt sky130_fd_sc_hd__or3b_1 A B C_N VGND VNB VPB VPWR X
.ends

* Black-box entry subcircuit for sky130_fd_sc_hd__or4b_1 abstract view
.subckt sky130_fd_sc_hd__or4b_1 A B C D_N VGND VNB VPB VPWR X
.ends

* Black-box entry subcircuit for sky130_fd_sc_hd__nor4_2 abstract view
.subckt sky130_fd_sc_hd__nor4_2 A B C D VGND VNB VPB VPWR Y
.ends

.subckt tt2_tholin_diceroll clk io_in io_out[0] io_out[1] io_out[2] io_out[3] io_out[4]
+ io_out[5] io_out[6] io_out[7] rst vccd1 vssd1
XFILLER_22_188 vssd1 vssd1 vccd1 vccd1 sky130_fd_sc_hd__fill_2
XFILLER_22_133 vssd1 vssd1 vccd1 vccd1 sky130_fd_sc_hd__decap_6
XFILLER_22_111 vssd1 vssd1 vccd1 vccd1 sky130_fd_sc_hd__decap_4
XFILLER_26_85 vssd1 vssd1 vccd1 vccd1 sky130_fd_sc_hd__decap_6
X_432_ dice.counter\[3\] _152_ _202_ _067_ vssd1 vssd1 vccd1 vccd1 _210_ sky130_fd_sc_hd__o2bb2a_1
X_294_ _089_ dice.counter\[4\] _064_ _066_ vssd1 vssd1 vccd1 vccd1 _096_ sky130_fd_sc_hd__a22o_1
X_501_ _250_ vssd1 vssd1 vccd1 vccd1 _049_ sky130_fd_sc_hd__clkbuf_1
X_363_ _098_ _099_ _068_ _163_ vssd1 vssd1 vccd1 vccd1 _164_ sky130_fd_sc_hd__a211o_1
X_415_ dice.clkdiv\[5\] _121_ _187_ _193_ _169_ vssd1 vssd1 vccd1 vccd1 _198_ sky130_fd_sc_hd__a41o_1
XFILLER_10_136 vssd1 vssd1 vccd1 vccd1 sky130_fd_sc_hd__decap_4
X_346_ _116_ _128_ _132_ _146_ vssd1 vssd1 vccd1 vccd1 _147_ sky130_fd_sc_hd__a31o_1
XFILLER_6_118 vssd1 vssd1 vccd1 vccd1 sky130_fd_sc_hd__fill_1
XFILLER_6_129 vssd1 vssd1 vccd1 vccd1 sky130_fd_sc_hd__fill_1
X_277_ _078_ dice.clkdiv\[1\] vssd1 vssd1 vccd1 vccd1 _079_ sky130_fd_sc_hd__or2_1
X_329_ dice.clkdiv\[4\] dice.clkdiv\[6\] _123_ _130_ vssd1 vssd1 vccd1 vccd1 _131_
+ sky130_fd_sc_hd__or4_1
XFILLER_0_57 vssd1 vssd1 vccd1 vccd1 sky130_fd_sc_hd__fill_2
XFILLER_0_46 vssd1 vssd1 vccd1 vccd1 sky130_fd_sc_hd__decap_4
XFILLER_0_35 vssd1 vssd1 vccd1 vccd1 sky130_fd_sc_hd__decap_8
XFILLER_9_11 vssd1 vssd1 vccd1 vccd1 sky130_fd_sc_hd__decap_3
XFILLER_20_65 vssd1 vssd1 vccd1 vccd1 sky130_fd_sc_hd__decap_4
XFILLER_13_3 vssd1 vssd1 vccd1 vccd1 sky130_ef_sc_hd__decap_12
XFILLER_25_153 vssd1 vssd1 vccd1 vccd1 sky130_ef_sc_hd__decap_12
XFILLER_15_98 vssd1 vssd1 vccd1 vccd1 sky130_fd_sc_hd__fill_1
XFILLER_15_54 vssd1 vssd1 vccd1 vccd1 sky130_fd_sc_hd__fill_2
XFILLER_15_43 vssd1 vssd1 vccd1 vccd1 sky130_fd_sc_hd__decap_8
Xoutput7 net7 vssd1 vssd1 vccd1 vccd1 io_out[4] sky130_fd_sc_hd__buf_2
XTAP_145 vssd1 vccd1 sky130_fd_sc_hd__tapvpwrvgnd_1
XTAP_134 vssd1 vccd1 sky130_fd_sc_hd__tapvpwrvgnd_1
XFILLER_22_123 vssd1 vssd1 vccd1 vccd1 sky130_fd_sc_hd__decap_4
XTAP_123 vssd1 vccd1 sky130_fd_sc_hd__tapvpwrvgnd_1
XTAP_112 vssd1 vccd1 sky130_fd_sc_hd__tapvpwrvgnd_1
XTAP_101 vssd1 vccd1 sky130_fd_sc_hd__tapvpwrvgnd_1
XFILLER_26_97 vssd1 vssd1 vccd1 vccd1 sky130_fd_sc_hd__decap_4
X_431_ _177_ _209_ vssd1 vssd1 vccd1 vccd1 _020_ sky130_fd_sc_hd__nor2_1
X_293_ _084_ _086_ _087_ vssd1 vssd1 vccd1 vccd1 _095_ sky130_fd_sc_hd__or3_1
X_500_ dice.lfsr\[0\] _190_ vssd1 vssd1 vccd1 vccd1 _250_ sky130_fd_sc_hd__and2_1
X_362_ _089_ dice.clkdiv\[2\] _071_ _077_ vssd1 vssd1 vccd1 vccd1 _163_ sky130_fd_sc_hd__a31o_1
XFILLER_13_101 vssd1 vssd1 vccd1 vccd1 sky130_fd_sc_hd__fill_1
XFILLER_3_35 vssd1 vssd1 vccd1 vccd1 sky130_fd_sc_hd__fill_2
XFILLER_3_57 vssd1 vssd1 vccd1 vccd1 sky130_fd_sc_hd__fill_2
XFILLER_12_44 vssd1 vssd1 vccd1 vccd1 sky130_fd_sc_hd__decap_4
XFILLER_10_115 vssd1 vssd1 vccd1 vccd1 sky130_fd_sc_hd__decap_3
XFILLER_6_108 vssd1 vssd1 vccd1 vccd1 sky130_fd_sc_hd__decap_4
X_414_ dice.clkdiv\[5\] _073_ _185_ _193_ vssd1 vssd1 vccd1 vccd1 _197_ sky130_fd_sc_hd__and4_1
X_276_ _065_ vssd1 vssd1 vccd1 vccd1 _078_ sky130_fd_sc_hd__buf_2
X_345_ dice.bcd\[1\] vssd1 vssd1 vccd1 vccd1 _146_ sky130_fd_sc_hd__inv_2
XFILLER_23_65 vssd1 vssd1 vccd1 vccd1 sky130_fd_sc_hd__decap_4
X_328_ _091_ _073_ _129_ vssd1 vssd1 vccd1 vccd1 _130_ sky130_fd_sc_hd__or3_1
X_259_ _056_ _060_ vssd1 vssd1 vccd1 vccd1 _061_ sky130_fd_sc_hd__or2_1
XFILLER_9_89 vssd1 vssd1 vccd1 vccd1 sky130_fd_sc_hd__fill_1
XFILLER_2_122 vssd1 vssd1 vccd1 vccd1 sky130_fd_sc_hd__decap_4
XFILLER_2_133 vssd1 vssd1 vccd1 vccd1 sky130_fd_sc_hd__decap_6
XFILLER_2_155 vssd1 vssd1 vccd1 vccd1 sky130_fd_sc_hd__fill_1
XFILLER_2_177 vssd1 vssd1 vccd1 vccd1 sky130_fd_sc_hd__decap_6
XFILLER_2_188 vssd1 vssd1 vccd1 vccd1 sky130_fd_sc_hd__fill_2
XFILLER_20_11 vssd1 vssd1 vccd1 vccd1 sky130_fd_sc_hd__decap_3
XFILLER_25_165 vssd1 vssd1 vccd1 vccd1 sky130_fd_sc_hd__decap_3
XFILLER_25_132 vssd1 vssd1 vccd1 vccd1 sky130_fd_sc_hd__decap_4
Xoutput8 net8 vssd1 vssd1 vccd1 vccd1 io_out[5] sky130_fd_sc_hd__buf_2
Xoutput10 net10 vssd1 vssd1 vccd1 vccd1 io_out[7] sky130_fd_sc_hd__buf_2
XTAP_135 vssd1 vccd1 sky130_fd_sc_hd__tapvpwrvgnd_1
XFILLER_22_168 vssd1 vssd1 vccd1 vccd1 sky130_fd_sc_hd__decap_4
XTAP_124 vssd1 vccd1 sky130_fd_sc_hd__tapvpwrvgnd_1
XTAP_113 vssd1 vccd1 sky130_fd_sc_hd__tapvpwrvgnd_1
XTAP_102 vssd1 vccd1 sky130_fd_sc_hd__tapvpwrvgnd_1
X_430_ _071_ _202_ _208_ vssd1 vssd1 vccd1 vccd1 _209_ sky130_fd_sc_hd__o21a_1
XFILLER_13_146 vssd1 vssd1 vccd1 vccd1 sky130_fd_sc_hd__fill_1
XFILLER_13_113 vssd1 vssd1 vccd1 vccd1 sky130_fd_sc_hd__fill_2
X_361_ _153_ _155_ _160_ _161_ _082_ vssd1 vssd1 vccd1 vccd1 _162_ sky130_fd_sc_hd__a2111o_1
X_292_ _092_ _093_ vssd1 vssd1 vccd1 vccd1 _094_ sky130_fd_sc_hd__nor2_1
XFILLER_9_139 vssd1 vssd1 vccd1 vccd1 sky130_fd_sc_hd__decap_8
XFILLER_12_89 vssd1 vssd1 vccd1 vccd1 sky130_fd_sc_hd__decap_4
X_275_ _075_ dice.counter\[0\] _076_ vssd1 vssd1 vccd1 vccd1 _077_ sky130_fd_sc_hd__mux2_1
X_413_ _091_ _194_ _196_ vssd1 vssd1 vccd1 vccd1 _015_ sky130_fd_sc_hd__a21oi_1
X_344_ dice.bcd\[0\] _143_ _144_ vssd1 vssd1 vccd1 vccd1 _145_ sky130_fd_sc_hd__mux2_1
XFILLER_4_90 vssd1 vssd1 vccd1 vccd1 sky130_fd_sc_hd__decap_4
XFILLER_23_55 vssd1 vssd1 vccd1 vccd1 sky130_fd_sc_hd__fill_1
XFILLER_3_3 vssd1 vssd1 vccd1 vccd1 sky130_ef_sc_hd__decap_12
X_327_ dice.clkdiv\[1\] dice.clkdiv\[3\] _076_ vssd1 vssd1 vccd1 vccd1 _129_ sky130_fd_sc_hd__or3_1
X_258_ _058_ _059_ vssd1 vssd1 vccd1 vccd1 _060_ sky130_fd_sc_hd__xnor2_1
XFILLER_9_57 vssd1 vssd1 vccd1 vccd1 sky130_fd_sc_hd__decap_4
XFILLER_20_78 vssd1 vssd1 vccd1 vccd1 sky130_fd_sc_hd__fill_1
XFILLER_6_14 vssd1 vssd1 vccd1 vccd1 sky130_fd_sc_hd__decap_4
XFILLER_19_130 vssd1 vssd1 vccd1 vccd1 sky130_ef_sc_hd__decap_12
XFILLER_25_111 vssd1 vssd1 vccd1 vccd1 sky130_fd_sc_hd__fill_1
XFILLER_16_100 vssd1 vssd1 vccd1 vccd1 sky130_fd_sc_hd__fill_1
Xoutput9 net9 vssd1 vssd1 vccd1 vccd1 io_out[6] sky130_fd_sc_hd__buf_2
XTAP_136 vssd1 vccd1 sky130_fd_sc_hd__tapvpwrvgnd_1
XFILLER_22_158 vssd1 vssd1 vccd1 vccd1 sky130_fd_sc_hd__fill_1
XFILLER_22_103 vssd1 vssd1 vccd1 vccd1 sky130_fd_sc_hd__decap_4
XTAP_125 vssd1 vccd1 sky130_fd_sc_hd__tapvpwrvgnd_1
XTAP_114 vssd1 vccd1 sky130_fd_sc_hd__tapvpwrvgnd_1
XTAP_103 vssd1 vccd1 sky130_fd_sc_hd__tapvpwrvgnd_1
XFILLER_26_33 vssd1 vssd1 vccd1 vccd1 sky130_ef_sc_hd__decap_12
X_360_ _071_ _073_ vssd1 vssd1 vccd1 vccd1 _161_ sky130_fd_sc_hd__nor2_1
XFILLER_13_169 vssd1 vssd1 vccd1 vccd1 sky130_fd_sc_hd__fill_2
XFILLER_13_158 vssd1 vssd1 vccd1 vccd1 sky130_fd_sc_hd__fill_1
X_291_ _088_ _090_ _091_ vssd1 vssd1 vccd1 vccd1 _093_ sky130_fd_sc_hd__and3_1
X_489_ _244_ vssd1 vssd1 vccd1 vccd1 _043_ sky130_fd_sc_hd__clkbuf_1
XFILLER_3_15 vssd1 vssd1 vccd1 vccd1 sky130_ef_sc_hd__decap_12
XFILLER_12_68 vssd1 vssd1 vccd1 vccd1 sky130_fd_sc_hd__fill_2
X_412_ dice.clkdiv\[5\] _190_ _187_ _193_ vssd1 vssd1 vccd1 vccd1 _196_ sky130_fd_sc_hd__and4_1
XFILLER_5_110 vssd1 vssd1 vccd1 vccd1 sky130_fd_sc_hd__fill_2
X_343_ _116_ _128_ _132_ vssd1 vssd1 vccd1 vccd1 _144_ sky130_fd_sc_hd__and3_1
X_274_ _065_ dice.clkdiv\[0\] vssd1 vssd1 vccd1 vccd1 _076_ sky130_fd_sc_hd__nor2b_2
XFILLER_0_27 vssd1 vssd1 vccd1 vccd1 sky130_fd_sc_hd__fill_1
XFILLER_2_168 vssd1 vssd1 vccd1 vccd1 sky130_fd_sc_hd__decap_4
X_326_ _120_ _122_ _127_ vssd1 vssd1 vccd1 vccd1 _128_ sky130_fd_sc_hd__a21oi_2
X_257_ dice.r_counter\[2\] dice.lfsr\[2\] vssd1 vssd1 vccd1 vccd1 _059_ sky130_fd_sc_hd__xor2_1
XFILLER_9_36 vssd1 vssd1 vccd1 vccd1 sky130_fd_sc_hd__fill_1
XFILLER_18_23 vssd1 vssd1 vccd1 vccd1 sky130_fd_sc_hd__decap_4
X_309_ dice.counter\[12\] _102_ _109_ _110_ vssd1 vssd1 vccd1 vccd1 _111_ sky130_fd_sc_hd__and4_1
XFILLER_20_24 vssd1 vssd1 vccd1 vccd1 sky130_fd_sc_hd__decap_4
XFILLER_19_164 vssd1 vssd1 vccd1 vccd1 sky130_fd_sc_hd__decap_4
XFILLER_25_189 vssd1 vssd1 vccd1 vccd1 sky130_fd_sc_hd__fill_1
XFILLER_15_57 vssd1 vssd1 vccd1 vccd1 sky130_fd_sc_hd__fill_2
XTAP_137 vssd1 vccd1 sky130_fd_sc_hd__tapvpwrvgnd_1
XTAP_126 vssd1 vccd1 sky130_fd_sc_hd__tapvpwrvgnd_1
XTAP_115 vssd1 vccd1 sky130_fd_sc_hd__tapvpwrvgnd_1
XFILLER_16_189 vssd1 vssd1 vccd1 vccd1 sky130_fd_sc_hd__fill_1
XFILLER_16_145 vssd1 vssd1 vccd1 vccd1 sky130_fd_sc_hd__fill_1
XTAP_104 vssd1 vccd1 sky130_fd_sc_hd__tapvpwrvgnd_1
XFILLER_11_3 vssd1 vssd1 vccd1 vccd1 sky130_fd_sc_hd__decap_6
XFILLER_26_45 vssd1 vssd1 vccd1 vccd1 sky130_fd_sc_hd__fill_1
XFILLER_26_23 vssd1 vssd1 vccd1 vccd1 sky130_fd_sc_hd__decap_4
X_488_ _191_ dice.lfsr\[10\] vssd1 vssd1 vccd1 vccd1 _244_ sky130_fd_sc_hd__and2_1
X_290_ _088_ _090_ _091_ vssd1 vssd1 vccd1 vccd1 _092_ sky130_fd_sc_hd__a21oi_1
X_557_ clknet_2_0__leaf_clk _053_ vssd1 vssd1 vccd1 vccd1 net5 sky130_fd_sc_hd__dfxtp_1
XFILLER_3_27 vssd1 vssd1 vccd1 vccd1 sky130_fd_sc_hd__decap_8
XFILLER_3_49 vssd1 vssd1 vccd1 vccd1 sky130_fd_sc_hd__decap_6
XFILLER_12_181 vssd1 vssd1 vccd1 vccd1 sky130_fd_sc_hd__decap_4
XFILLER_10_107 vssd1 vssd1 vccd1 vccd1 sky130_fd_sc_hd__decap_8
XFILLER_8_130 vssd1 vssd1 vccd1 vccd1 sky130_fd_sc_hd__decap_4
XFILLER_8_141 vssd1 vssd1 vccd1 vccd1 sky130_fd_sc_hd__fill_2
X_273_ _065_ dice.counter\[0\] vssd1 vssd1 vccd1 vccd1 _075_ sky130_fd_sc_hd__or2b_1
X_411_ _195_ vssd1 vssd1 vccd1 vccd1 _014_ sky130_fd_sc_hd__clkbuf_1
X_342_ _140_ _142_ vssd1 vssd1 vccd1 vccd1 _143_ sky130_fd_sc_hd__or2_1
XFILLER_5_133 vssd1 vssd1 vccd1 vccd1 sky130_fd_sc_hd__decap_6
XFILLER_5_155 vssd1 vssd1 vccd1 vccd1 sky130_fd_sc_hd__decap_6
XFILLER_5_166 vssd1 vssd1 vccd1 vccd1 sky130_fd_sc_hd__fill_2
XFILLER_5_188 vssd1 vssd1 vccd1 vccd1 sky130_fd_sc_hd__fill_2
XFILLER_23_57 vssd1 vssd1 vccd1 vccd1 sky130_fd_sc_hd__decap_3
XFILLER_2_114 vssd1 vssd1 vccd1 vccd1 sky130_fd_sc_hd__decap_6
XFILLER_2_147 vssd1 vssd1 vccd1 vccd1 sky130_fd_sc_hd__decap_8
X_325_ _124_ _126_ vssd1 vssd1 vccd1 vccd1 _127_ sky130_fd_sc_hd__xnor2_1
X_256_ dice.r_counter\[0\] dice.lfsr\[0\] _055_ _057_ vssd1 vssd1 vccd1 vccd1 _058_
+ sky130_fd_sc_hd__a31o_1
XFILLER_1_180 vssd1 vssd1 vccd1 vccd1 sky130_fd_sc_hd__decap_4
XFILLER_18_68 vssd1 vssd1 vccd1 vccd1 sky130_fd_sc_hd__decap_6
XFILLER_18_35 vssd1 vssd1 vccd1 vccd1 sky130_ef_sc_hd__decap_12
X_308_ dice.counter\[8\] dice.counter\[15\] _103_ vssd1 vssd1 vccd1 vccd1 _110_ sky130_fd_sc_hd__and3_1
XFILLER_19_110 vssd1 vssd1 vccd1 vccd1 sky130_fd_sc_hd__fill_2
XANTENNA_clkbuf_0_clk_A clk vssd1 vssd1 vccd1 vccd1 sky130_fd_sc_hd__diode_2
XFILLER_25_113 vssd1 vssd1 vccd1 vccd1 sky130_fd_sc_hd__decap_4
XFILLER_15_36 vssd1 vssd1 vccd1 vccd1 sky130_fd_sc_hd__decap_4
XTAP_138 vssd1 vccd1 sky130_fd_sc_hd__tapvpwrvgnd_1
XTAP_127 vssd1 vccd1 sky130_fd_sc_hd__tapvpwrvgnd_1
XTAP_116 vssd1 vccd1 sky130_fd_sc_hd__tapvpwrvgnd_1
XTAP_105 vssd1 vccd1 sky130_fd_sc_hd__tapvpwrvgnd_1
XFILLER_7_70 vssd1 vssd1 vccd1 vccd1 sky130_fd_sc_hd__fill_1
XFILLER_7_81 vssd1 vssd1 vccd1 vccd1 sky130_fd_sc_hd__decap_4
XFILLER_7_92 vssd1 vssd1 vccd1 vccd1 sky130_fd_sc_hd__decap_4
XFILLER_21_160 vssd1 vssd1 vccd1 vccd1 sky130_fd_sc_hd__fill_1
X_487_ _243_ vssd1 vssd1 vccd1 vccd1 _042_ sky130_fd_sc_hd__clkbuf_1
X_556_ clknet_2_0__leaf_clk _052_ vssd1 vssd1 vccd1 vccd1 dice.bcd\[2\] sky130_fd_sc_hd__dfxtp_1
XFILLER_8_186 vssd1 vssd1 vccd1 vccd1 sky130_fd_sc_hd__decap_4
X_410_ _192_ _194_ vssd1 vssd1 vccd1 vccd1 _195_ sky130_fd_sc_hd__and2_1
X_272_ _071_ _073_ vssd1 vssd1 vccd1 vccd1 _074_ sky130_fd_sc_hd__xnor2_1
XFILLER_12_37 vssd1 vssd1 vccd1 vccd1 sky130_fd_sc_hd__fill_2
XFILLER_12_15 vssd1 vssd1 vccd1 vccd1 sky130_ef_sc_hd__decap_12
X_341_ _134_ _141_ _060_ vssd1 vssd1 vccd1 vccd1 _142_ sky130_fd_sc_hd__mux2_1
X_539_ clknet_2_0__leaf_clk _035_ vssd1 vssd1 vccd1 vccd1 dice.lfsr\[1\] sky130_fd_sc_hd__dfxtp_1
XFILLER_5_101 vssd1 vssd1 vccd1 vccd1 sky130_fd_sc_hd__fill_2
XFILLER_23_36 vssd1 vssd1 vccd1 vccd1 sky130_ef_sc_hd__decap_12
XFILLER_4_82 vssd1 vssd1 vccd1 vccd1 sky130_fd_sc_hd__fill_2
XANTENNA__356__A _078_ vssd1 vssd1 vccd1 vccd1 sky130_fd_sc_hd__diode_2
X_324_ dice.counter\[7\] _125_ _118_ vssd1 vssd1 vccd1 vccd1 _126_ sky130_fd_sc_hd__mux2_1
XFILLER_0_29 vssd1 vssd1 vccd1 vccd1 sky130_fd_sc_hd__fill_2
X_255_ dice.lfsr\[1\] dice.r_counter\[1\] vssd1 vssd1 vccd1 vccd1 _057_ sky130_fd_sc_hd__and2_1
XFILLER_18_47 vssd1 vssd1 vccd1 vccd1 sky130_fd_sc_hd__decap_8
XFILLER_1_3 vssd1 vssd1 vccd1 vccd1 sky130_ef_sc_hd__decap_12
X_307_ _078_ dice.counter\[9\] dice.counter\[10\] dice.counter\[11\] vssd1 vssd1 vccd1
+ vccd1 _109_ sky130_fd_sc_hd__and4b_1
XFILLER_19_188 vssd1 vssd1 vccd1 vccd1 sky130_fd_sc_hd__fill_2
XFILLER_19_144 vssd1 vssd1 vccd1 vccd1 sky130_fd_sc_hd__decap_4
XFILLER_10_81 vssd1 vssd1 vccd1 vccd1 sky130_fd_sc_hd__decap_3
XFILLER_10_70 vssd1 vssd1 vccd1 vccd1 sky130_fd_sc_hd__decap_4
XFILLER_25_169 vssd1 vssd1 vccd1 vccd1 sky130_ef_sc_hd__decap_12
XFILLER_25_136 vssd1 vssd1 vccd1 vccd1 sky130_fd_sc_hd__fill_1
XFILLER_25_125 vssd1 vssd1 vccd1 vccd1 sky130_fd_sc_hd__decap_4
XFILLER_15_15 vssd1 vssd1 vccd1 vccd1 sky130_fd_sc_hd__fill_1
XFILLER_21_80 vssd1 vssd1 vccd1 vccd1 sky130_fd_sc_hd__fill_1
XFILLER_16_158 vssd1 vssd1 vccd1 vccd1 sky130_fd_sc_hd__decap_4
XTAP_139 vssd1 vccd1 sky130_fd_sc_hd__tapvpwrvgnd_1
XTAP_128 vssd1 vccd1 sky130_fd_sc_hd__tapvpwrvgnd_1
XFILLER_22_139 vssd1 vssd1 vccd1 vccd1 sky130_fd_sc_hd__fill_1
XTAP_117 vssd1 vccd1 sky130_fd_sc_hd__tapvpwrvgnd_1
XTAP_106 vssd1 vccd1 sky130_fd_sc_hd__tapvpwrvgnd_1
XPHY_0 vssd1 vssd1 vccd1 vccd1 sky130_fd_sc_hd__decap_3
X_486_ _191_ dice.lfsr\[9\] vssd1 vssd1 vccd1 vccd1 _243_ sky130_fd_sc_hd__and2_1
X_555_ clknet_2_0__leaf_clk _051_ vssd1 vssd1 vccd1 vccd1 dice.bcd\[1\] sky130_fd_sc_hd__dfxtp_1
XFILLER_8_110 vssd1 vssd1 vccd1 vccd1 sky130_fd_sc_hd__decap_6
XFILLER_12_27 vssd1 vssd1 vccd1 vccd1 sky130_fd_sc_hd__fill_1
XFILLER_27_90 vssd1 vssd1 vccd1 vccd1 sky130_fd_sc_hd__decap_6
X_538_ clknet_2_2__leaf_clk _034_ vssd1 vssd1 vccd1 vccd1 dice.lfsr\[0\] sky130_fd_sc_hd__dfxtp_2
X_271_ _072_ vssd1 vssd1 vccd1 vccd1 _073_ sky130_fd_sc_hd__clkbuf_2
X_340_ _139_ vssd1 vssd1 vccd1 vccd1 _141_ sky130_fd_sc_hd__clkinv_2
XFILLER_5_113 vssd1 vssd1 vccd1 vccd1 sky130_fd_sc_hd__decap_4
XFILLER_23_48 vssd1 vssd1 vccd1 vccd1 sky130_fd_sc_hd__fill_1
XFILLER_23_15 vssd1 vssd1 vccd1 vccd1 sky130_fd_sc_hd__decap_4
X_469_ _177_ _234_ vssd1 vssd1 vccd1 vccd1 _033_ sky130_fd_sc_hd__nor2_1
XFILLER_4_50 vssd1 vssd1 vccd1 vccd1 sky130_fd_sc_hd__decap_6
XANTENNA__462__A _178_ vssd1 vssd1 vccd1 vccd1 sky130_fd_sc_hd__diode_2
X_254_ _054_ _055_ vssd1 vssd1 vccd1 vccd1 _056_ sky130_fd_sc_hd__xnor2_1
X_323_ _089_ dice.counter\[7\] vssd1 vssd1 vccd1 vccd1 _125_ sky130_fd_sc_hd__nand2_1
XFILLER_1_160 vssd1 vssd1 vccd1 vccd1 sky130_fd_sc_hd__fill_1
XFILLER_27_3 vssd1 vssd1 vccd1 vccd1 sky130_ef_sc_hd__decap_12
XANTENNA__277__A _078_ vssd1 vssd1 vccd1 vccd1 sky130_fd_sc_hd__diode_2
X_306_ _101_ _102_ _107_ vssd1 vssd1 vccd1 vccd1 _108_ sky130_fd_sc_hd__nor3_1
XFILLER_19_156 vssd1 vssd1 vccd1 vccd1 sky130_fd_sc_hd__decap_4
XFILLER_10_93 vssd1 vssd1 vccd1 vccd1 sky130_fd_sc_hd__decap_4
XFILLER_6_29 vssd1 vssd1 vccd1 vccd1 sky130_fd_sc_hd__fill_2
XFILLER_15_27 vssd1 vssd1 vccd1 vccd1 sky130_fd_sc_hd__decap_4
XANTENNA__454__B _078_ vssd1 vssd1 vccd1 vccd1 sky130_fd_sc_hd__diode_2
XTAP_129 vssd1 vccd1 sky130_fd_sc_hd__tapvpwrvgnd_1
XFILLER_22_107 vssd1 vssd1 vccd1 vccd1 sky130_fd_sc_hd__fill_1
XTAP_118 vssd1 vccd1 sky130_fd_sc_hd__tapvpwrvgnd_1
XTAP_107 vssd1 vccd1 sky130_fd_sc_hd__tapvpwrvgnd_1
XPHY_1 vssd1 vssd1 vccd1 vccd1 sky130_fd_sc_hd__decap_3
XFILLER_26_15 vssd1 vssd1 vccd1 vccd1 sky130_fd_sc_hd__decap_3
X_485_ _242_ vssd1 vssd1 vccd1 vccd1 _041_ sky130_fd_sc_hd__clkbuf_1
XFILLER_16_92 vssd1 vssd1 vccd1 vccd1 sky130_fd_sc_hd__decap_8
X_554_ clknet_2_0__leaf_clk _050_ vssd1 vssd1 vccd1 vccd1 dice.bcd\[0\] sky130_fd_sc_hd__dfxtp_1
X_270_ _062_ dice.clkdiv\[2\] vssd1 vssd1 vccd1 vccd1 _072_ sky130_fd_sc_hd__and2_1
XFILLER_5_169 vssd1 vssd1 vccd1 vccd1 sky130_fd_sc_hd__decap_6
X_399_ dice.clkdiv\[1\] _073_ _076_ _182_ vssd1 vssd1 vccd1 vccd1 _186_ sky130_fd_sc_hd__and4_1
X_468_ _157_ dice.counter\[15\] _233_ vssd1 vssd1 vccd1 vccd1 _234_ sky130_fd_sc_hd__mux2_1
X_537_ clknet_2_1__leaf_clk _033_ vssd1 vssd1 vccd1 vccd1 dice.counter\[15\] sky130_fd_sc_hd__dfxtp_1
XFILLER_4_62 vssd1 vssd1 vccd1 vccd1 sky130_fd_sc_hd__decap_4
X_322_ _078_ _123_ vssd1 vssd1 vccd1 vccd1 _124_ sky130_fd_sc_hd__nor2_1
XFILLER_2_139 vssd1 vssd1 vccd1 vccd1 sky130_fd_sc_hd__fill_1
X_253_ dice.lfsr\[1\] dice.r_counter\[1\] vssd1 vssd1 vccd1 vccd1 _055_ sky130_fd_sc_hd__xor2_1
XFILLER_18_27 vssd1 vssd1 vccd1 vccd1 sky130_fd_sc_hd__fill_1
XFILLER_18_16 vssd1 vssd1 vccd1 vccd1 sky130_fd_sc_hd__decap_4
XFILLER_24_81 vssd1 vssd1 vccd1 vccd1 sky130_fd_sc_hd__decap_3
XANTENNA__464__C1 _178_ vssd1 vssd1 vccd1 vccd1 sky130_fd_sc_hd__diode_2
X_305_ _103_ _104_ _105_ _106_ vssd1 vssd1 vccd1 vccd1 _107_ sky130_fd_sc_hd__or4_1
XFILLER_19_113 vssd1 vssd1 vccd1 vccd1 sky130_fd_sc_hd__fill_2
XFILLER_25_105 vssd1 vssd1 vccd1 vccd1 sky130_fd_sc_hd__decap_6
XFILLER_16_149 vssd1 vssd1 vccd1 vccd1 sky130_fd_sc_hd__decap_6
XFILLER_16_138 vssd1 vssd1 vccd1 vccd1 sky130_fd_sc_hd__fill_2
XTAP_119 vssd1 vccd1 sky130_fd_sc_hd__tapvpwrvgnd_1
XTAP_108 vssd1 vccd1 sky130_fd_sc_hd__tapvpwrvgnd_1
Xclkbuf_0_clk clk vssd1 vssd1 vccd1 vccd1 clknet_0_clk sky130_fd_sc_hd__clkbuf_16
XPHY_2 vssd1 vssd1 vccd1 vccd1 sky130_fd_sc_hd__decap_3
XFILLER_26_27 vssd1 vssd1 vccd1 vccd1 sky130_fd_sc_hd__fill_1
XFILLER_21_152 vssd1 vssd1 vccd1 vccd1 sky130_fd_sc_hd__decap_8
XFILLER_21_130 vssd1 vssd1 vccd1 vccd1 sky130_fd_sc_hd__decap_6
XFILLER_13_119 vssd1 vssd1 vccd1 vccd1 sky130_fd_sc_hd__decap_8
XFILLER_7_62 vssd1 vssd1 vccd1 vccd1 sky130_fd_sc_hd__decap_8
X_484_ _169_ dice.lfsr\[8\] vssd1 vssd1 vccd1 vccd1 _242_ sky130_fd_sc_hd__or2_1
X_553_ clknet_2_2__leaf_clk _049_ vssd1 vssd1 vccd1 vccd1 dice.lfsr\[15\] sky130_fd_sc_hd__dfxtp_1
XFILLER_12_141 vssd1 vssd1 vccd1 vccd1 sky130_fd_sc_hd__decap_6
XFILLER_8_178 vssd1 vssd1 vccd1 vccd1 sky130_fd_sc_hd__decap_4
XANTENNA__476__A _169_ vssd1 vssd1 vccd1 vccd1 sky130_fd_sc_hd__diode_2
XFILLER_12_29 vssd1 vssd1 vccd1 vccd1 sky130_fd_sc_hd__decap_8
XFILLER_27_70 vssd1 vssd1 vccd1 vccd1 sky130_ef_sc_hd__decap_12
X_398_ _177_ _184_ _185_ vssd1 vssd1 vccd1 vccd1 _011_ sky130_fd_sc_hd__nor3_1
X_467_ _178_ _232_ _233_ vssd1 vssd1 vccd1 vccd1 _032_ sky130_fd_sc_hd__nor3_1
X_536_ clknet_2_1__leaf_clk _032_ vssd1 vssd1 vccd1 vccd1 dice.counter\[14\] sky130_fd_sc_hd__dfxtp_1
XFILLER_4_85 vssd1 vssd1 vccd1 vccd1 sky130_fd_sc_hd__fill_2
XFILLER_2_107 vssd1 vssd1 vccd1 vccd1 sky130_fd_sc_hd__decap_3
X_321_ dice.clkdiv\[7\] vssd1 vssd1 vccd1 vccd1 _123_ sky130_fd_sc_hd__inv_2
X_252_ dice.r_counter\[0\] dice.lfsr\[0\] vssd1 vssd1 vccd1 vccd1 _054_ sky130_fd_sc_hd__nand2_1
X_519_ clknet_2_2__leaf_clk _015_ vssd1 vssd1 vccd1 vccd1 dice.clkdiv\[5\] sky130_fd_sc_hd__dfxtp_1
X_304_ dice.counter\[9\] dice.counter\[11\] _065_ vssd1 vssd1 vccd1 vccd1 _106_ sky130_fd_sc_hd__o21ba_1
XANTENNA__484__A _169_ vssd1 vssd1 vccd1 vccd1 sky130_fd_sc_hd__diode_2
XFILLER_20_29 vssd1 vssd1 vccd1 vccd1 sky130_ef_sc_hd__decap_12
XFILLER_20_18 vssd1 vssd1 vccd1 vccd1 sky130_fd_sc_hd__decap_4
XFILLER_19_169 vssd1 vssd1 vccd1 vccd1 sky130_fd_sc_hd__decap_4
XFILLER_19_93 vssd1 vssd1 vccd1 vccd1 sky130_fd_sc_hd__decap_4
XFILLER_24_161 vssd1 vssd1 vccd1 vccd1 sky130_ef_sc_hd__decap_12
XFILLER_21_72 vssd1 vssd1 vccd1 vccd1 sky130_fd_sc_hd__decap_8
XTAP_109 vssd1 vccd1 sky130_fd_sc_hd__tapvpwrvgnd_1
XFILLER_16_128 vssd1 vssd1 vccd1 vccd1 sky130_fd_sc_hd__decap_4
XFILLER_16_106 vssd1 vssd1 vccd1 vccd1 sky130_ef_sc_hd__decap_12
XFILLER_13_109 vssd1 vssd1 vccd1 vccd1 sky130_fd_sc_hd__decap_3
XPHY_3 vssd1 vssd1 vccd1 vccd1 sky130_fd_sc_hd__decap_3
XFILLER_7_30 vssd1 vssd1 vccd1 vccd1 sky130_fd_sc_hd__fill_1
X_483_ _241_ vssd1 vssd1 vccd1 vccd1 _040_ sky130_fd_sc_hd__clkbuf_1
XFILLER_21_186 vssd1 vssd1 vccd1 vccd1 sky130_fd_sc_hd__decap_4
X_552_ clknet_2_2__leaf_clk _048_ vssd1 vssd1 vccd1 vccd1 dice.lfsr\[14\] sky130_fd_sc_hd__dfxtp_1
XFILLER_16_50 vssd1 vssd1 vccd1 vccd1 sky130_fd_sc_hd__decap_4
XFILLER_27_82 vssd1 vssd1 vccd1 vccd1 sky130_fd_sc_hd__fill_2
X_397_ _079_ _076_ _166_ vssd1 vssd1 vccd1 vccd1 _185_ sky130_fd_sc_hd__and3_1
X_466_ dice.counter\[13\] _102_ _230_ vssd1 vssd1 vccd1 vccd1 _233_ sky130_fd_sc_hd__and3_1
X_535_ clknet_2_1__leaf_clk _031_ vssd1 vssd1 vccd1 vccd1 dice.counter\[13\] sky130_fd_sc_hd__dfxtp_1
Xclkbuf_2_0__f_clk clknet_0_clk vssd1 vssd1 vccd1 vccd1 clknet_2_0__leaf_clk sky130_fd_sc_hd__clkbuf_16
X_320_ _118_ _119_ _121_ vssd1 vssd1 vccd1 vccd1 _122_ sky130_fd_sc_hd__a21o_1
XFILLER_13_95 vssd1 vssd1 vccd1 vccd1 sky130_fd_sc_hd__decap_6