* NGSPICE file created from tt2_tholin_multiplexed_counter.ext - technology: sky130B

* Black-box entry subcircuit for sky130_fd_sc_hd__decap_6 abstract view
.subckt sky130_fd_sc_hd__decap_6 VGND VNB VPB VPWR
.ends

* Black-box entry subcircuit for sky130_fd_sc_hd__decap_4 abstract view
.subckt sky130_fd_sc_hd__decap_4 VGND VNB VPB VPWR
.ends

* Black-box entry subcircuit for sky130_fd_sc_hd__decap_8 abstract view
.subckt sky130_fd_sc_hd__decap_8 VGND VNB VPB VPWR
.ends

* Black-box entry subcircuit for sky130_fd_sc_hd__dfrtp_1 abstract view
.subckt sky130_fd_sc_hd__dfrtp_1 CLK D RESET_B VGND VNB VPB VPWR Q
.ends

* Black-box entry subcircuit for sky130_fd_sc_hd__o211a_1 abstract view
.subckt sky130_fd_sc_hd__o211a_1 A1 A2 B1 C1 VGND VNB VPB VPWR X
.ends

* Black-box entry subcircuit for sky130_fd_sc_hd__decap_3 abstract view
.subckt sky130_fd_sc_hd__decap_3 VGND VNB VPB VPWR
.ends

* Black-box entry subcircuit for sky130_ef_sc_hd__decap_12 abstract view
.subckt sky130_ef_sc_hd__decap_12 VGND VNB VPB VPWR
.ends

* Black-box entry subcircuit for sky130_fd_sc_hd__clkbuf_16 abstract view
.subckt sky130_fd_sc_hd__clkbuf_16 A VGND VNB VPB VPWR X
.ends

* Black-box entry subcircuit for sky130_fd_sc_hd__inv_2 abstract view
.subckt sky130_fd_sc_hd__inv_2 A VGND VNB VPB VPWR Y
.ends

* Black-box entry subcircuit for sky130_fd_sc_hd__buf_1 abstract view
.subckt sky130_fd_sc_hd__buf_1 A VGND VNB VPB VPWR X
.ends

* Black-box entry subcircuit for sky130_fd_sc_hd__fill_2 abstract view
.subckt sky130_fd_sc_hd__fill_2 VGND VNB VPB VPWR
.ends

* Black-box entry subcircuit for sky130_fd_sc_hd__fill_1 abstract view
.subckt sky130_fd_sc_hd__fill_1 VGND VNB VPB VPWR
.ends

* Black-box entry subcircuit for sky130_fd_sc_hd__buf_2 abstract view
.subckt sky130_fd_sc_hd__buf_2 A VGND VNB VPB VPWR X
.ends

* Black-box entry subcircuit for sky130_fd_sc_hd__tapvpwrvgnd_1 abstract view
.subckt sky130_fd_sc_hd__tapvpwrvgnd_1 VGND VPWR
.ends

* Black-box entry subcircuit for sky130_fd_sc_hd__dfxtp_1 abstract view
.subckt sky130_fd_sc_hd__dfxtp_1 CLK D VGND VNB VPB VPWR Q
.ends

* Black-box entry subcircuit for sky130_fd_sc_hd__xor2_1 abstract view
.subckt sky130_fd_sc_hd__xor2_1 A B VGND VNB VPB VPWR X
.ends

* Black-box entry subcircuit for sky130_fd_sc_hd__dfrtp_2 abstract view
.subckt sky130_fd_sc_hd__dfrtp_2 CLK D RESET_B VGND VNB VPB VPWR Q
.ends

* Black-box entry subcircuit for sky130_fd_sc_hd__or2_1 abstract view
.subckt sky130_fd_sc_hd__or2_1 A B VGND VNB VPB VPWR X
.ends

* Black-box entry subcircuit for sky130_fd_sc_hd__dfrtp_4 abstract view
.subckt sky130_fd_sc_hd__dfrtp_4 CLK D RESET_B VGND VNB VPB VPWR Q
.ends

* Black-box entry subcircuit for sky130_fd_sc_hd__a22o_1 abstract view
.subckt sky130_fd_sc_hd__a22o_1 A1 A2 B1 B2 VGND VNB VPB VPWR X
.ends

* Black-box entry subcircuit for sky130_fd_sc_hd__clkinv_2 abstract view
.subckt sky130_fd_sc_hd__clkinv_2 A VGND VNB VPB VPWR Y
.ends

* Black-box entry subcircuit for sky130_fd_sc_hd__diode_2 abstract view
.subckt sky130_fd_sc_hd__diode_2 DIODE VGND VNB VPB VPWR
.ends

* Black-box entry subcircuit for sky130_fd_sc_hd__mux2_1 abstract view
.subckt sky130_fd_sc_hd__mux2_1 A0 A1 S VGND VNB VPB VPWR X
.ends

* Black-box entry subcircuit for sky130_fd_sc_hd__nor2_1 abstract view
.subckt sky130_fd_sc_hd__nor2_1 A B VGND VNB VPB VPWR Y
.ends

* Black-box entry subcircuit for sky130_fd_sc_hd__clkbuf_1 abstract view
.subckt sky130_fd_sc_hd__clkbuf_1 A VGND VNB VPB VPWR X
.ends

* Black-box entry subcircuit for sky130_fd_sc_hd__dfxtp_2 abstract view
.subckt sky130_fd_sc_hd__dfxtp_2 CLK D VGND VNB VPB VPWR Q
.ends

* Black-box entry subcircuit for sky130_fd_sc_hd__and4_1 abstract view
.subckt sky130_fd_sc_hd__and4_1 A B C D VGND VNB VPB VPWR X
.ends

* Black-box entry subcircuit for sky130_fd_sc_hd__a31oi_4 abstract view
.subckt sky130_fd_sc_hd__a31oi_4 A1 A2 A3 B1 VGND VNB VPB VPWR Y
.ends

* Black-box entry subcircuit for sky130_fd_sc_hd__and3b_1 abstract view
.subckt sky130_fd_sc_hd__and3b_1 A_N B C VGND VNB VPB VPWR X
.ends

* Black-box entry subcircuit for sky130_fd_sc_hd__nand2_1 abstract view
.subckt sky130_fd_sc_hd__nand2_1 A B VGND VNB VPB VPWR Y
.ends

* Black-box entry subcircuit for sky130_fd_sc_hd__nor2_2 abstract view
.subckt sky130_fd_sc_hd__nor2_2 A B VGND VNB VPB VPWR Y
.ends

* Black-box entry subcircuit for sky130_fd_sc_hd__o21ai_1 abstract view
.subckt sky130_fd_sc_hd__o21ai_1 A1 A2 B1 VGND VNB VPB VPWR Y
.ends

* Black-box entry subcircuit for sky130_fd_sc_hd__and2b_1 abstract view
.subckt sky130_fd_sc_hd__and2b_1 A_N B VGND VNB VPB VPWR X
.ends

* Black-box entry subcircuit for sky130_fd_sc_hd__dlymetal6s2s_1 abstract view
.subckt sky130_fd_sc_hd__dlymetal6s2s_1 A VGND VNB VPB VPWR X
.ends

* Black-box entry subcircuit for sky130_fd_sc_hd__and2_2 abstract view
.subckt sky130_fd_sc_hd__and2_2 A B VGND VNB VPB VPWR X
.ends

* Black-box entry subcircuit for sky130_fd_sc_hd__o31a_1 abstract view
.subckt sky130_fd_sc_hd__o31a_1 A1 A2 A3 B1 VGND VNB VPB VPWR X
.ends

* Black-box entry subcircuit for sky130_fd_sc_hd__a21o_1 abstract view
.subckt sky130_fd_sc_hd__a21o_1 A1 A2 B1 VGND VNB VPB VPWR X
.ends

* Black-box entry subcircuit for sky130_fd_sc_hd__or3b_1 abstract view
.subckt sky130_fd_sc_hd__or3b_1 A B C_N VGND VNB VPB VPWR X
.ends

* Black-box entry subcircuit for sky130_fd_sc_hd__mux4_2 abstract view
.subckt sky130_fd_sc_hd__mux4_2 A0 A1 A2 A3 S0 S1 VGND VNB VPB VPWR X
.ends

* Black-box entry subcircuit for sky130_fd_sc_hd__o21a_1 abstract view
.subckt sky130_fd_sc_hd__o21a_1 A1 A2 B1 VGND VNB VPB VPWR X
.ends

* Black-box entry subcircuit for sky130_fd_sc_hd__and3_1 abstract view
.subckt sky130_fd_sc_hd__and3_1 A B C VGND VNB VPB VPWR X
.ends

* Black-box entry subcircuit for sky130_fd_sc_hd__a21oi_1 abstract view
.subckt sky130_fd_sc_hd__a21oi_1 A1 A2 B1 VGND VNB VPB VPWR Y
.ends

.subckt tt2_tholin_multiplexed_counter clk io_out[0] io_out[10] io_out[11] io_out[1]
+ io_out[2] io_out[3] io_out[4] io_out[5] io_out[6] io_out[7] io_out[8] io_out[9]
+ rst vccd1 vssd1
XFILLER_22_133 vssd1 vssd1 vccd1 vccd1 sky130_fd_sc_hd__decap_6
XFILLER_3_34 vssd1 vssd1 vccd1 vccd1 sky130_fd_sc_hd__decap_4
XFILLER_9_104 vssd1 vssd1 vccd1 vccd1 sky130_fd_sc_hd__decap_8
XFILLER_9_126 vssd1 vssd1 vccd1 vccd1 sky130_fd_sc_hd__decap_4
XFILLER_12_21 vssd1 vssd1 vccd1 vccd1 sky130_fd_sc_hd__decap_6
X_277_ _036_ CIRCUIT_1111.full_counter_1.seconds_counter_1.custom_counter_4_1.MEMORY_3.d
+ _035_ vssd1 vssd1 vccd1 vccd1 CIRCUIT_1111.full_counter_1.seconds_counter_1.custom_counter_4_1.MEMORY_3.s_currentState
+ sky130_fd_sc_hd__dfrtp_1
X_200_ _086_ _099_ _105_ _101_ vssd1 vssd1 vccd1 vccd1 net8 sky130_fd_sc_hd__o211a_1
XFILLER_2_165 vssd1 vssd1 vccd1 vccd1 sky130_fd_sc_hd__decap_3
XFILLER_2_121 vssd1 vssd1 vccd1 vccd1 sky130_ef_sc_hd__decap_12
XFILLER_0_57 vssd1 vssd1 vccd1 vccd1 sky130_ef_sc_hd__decap_12
XFILLER_9_11 vssd1 vssd1 vccd1 vccd1 sky130_fd_sc_hd__decap_4
XFILLER_9_33 vssd1 vssd1 vccd1 vccd1 sky130_fd_sc_hd__decap_4
Xclkbuf_1_1__f__071_ clknet_0__071_ vssd1 vssd1 vccd1 vccd1 clknet_1_1__leaf__071_
+ sky130_fd_sc_hd__clkbuf_16
X_134__20 clknet_1_1__leaf__071_ vssd1 vssd1 vccd1 vccd1 net33 sky130_fd_sc_hd__inv_2
X_114_ clknet_1_1__leaf__069_ vssd1 vssd1 vccd1 vccd1 _071_ sky130_fd_sc_hd__buf_1
XFILLER_13_3 vssd1 vssd1 vccd1 vccd1 sky130_fd_sc_hd__decap_6
XFILLER_6_23 vssd1 vssd1 vccd1 vccd1 sky130_fd_sc_hd__decap_4
XFILLER_15_54 vssd1 vssd1 vccd1 vccd1 sky130_fd_sc_hd__fill_2
XFILLER_16_153 vssd1 vssd1 vccd1 vccd1 sky130_fd_sc_hd__decap_4
XFILLER_16_131 vssd1 vssd1 vccd1 vccd1 sky130_fd_sc_hd__fill_1
Xoutput7 net7 vssd1 vssd1 vccd1 vccd1 io_out[3] sky130_fd_sc_hd__buf_2
XTAP_112 vssd1 vccd1 sky130_fd_sc_hd__tapvpwrvgnd_1
XTAP_101 vssd1 vccd1 sky130_fd_sc_hd__tapvpwrvgnd_1
X_293_ clknet_1_0__leaf_clk CIRCUIT_1111.MEMORY_2.d net37 vssd1 vssd1 vccd1 vccd1
+ CIRCUIT_1111.MEMORY_2.s_currentState sky130_fd_sc_hd__dfrtp_1
XFILLER_3_13 vssd1 vssd1 vccd1 vccd1 sky130_fd_sc_hd__fill_1
XFILLER_3_57 vssd1 vssd1 vccd1 vccd1 sky130_ef_sc_hd__decap_12
X_276_ _034_ CIRCUIT_1111.full_counter_1.seconds_counter_1.custom_counter_4_1.MEMORY_2.d
+ _033_ vssd1 vssd1 vccd1 vccd1 CIRCUIT_1111.full_counter_1.seconds_counter_1.custom_counter_4_1.MEMORY_2.s_currentState
+ sky130_fd_sc_hd__dfrtp_1
XFILLER_23_54 vssd1 vssd1 vccd1 vccd1 sky130_fd_sc_hd__fill_2
XFILLER_23_43 vssd1 vssd1 vccd1 vccd1 sky130_fd_sc_hd__decap_8
X_259_ net18 net11 vssd1 vssd1 vccd1 vccd1 prev_sel sky130_fd_sc_hd__dfxtp_1
XFILLER_2_133 vssd1 vssd1 vccd1 vccd1 sky130_fd_sc_hd__decap_6
XFILLER_0_69 vssd1 vssd1 vccd1 vccd1 sky130_ef_sc_hd__decap_12
XFILLER_18_76 vssd1 vssd1 vccd1 vccd1 sky130_fd_sc_hd__decap_8
Xclkbuf_1_1__f__070_ clknet_0__070_ vssd1 vssd1 vccd1 vccd1 clknet_1_1__leaf__070_
+ sky130_fd_sc_hd__clkbuf_16
XFILLER_20_99 vssd1 vssd1 vccd1 vccd1 sky130_fd_sc_hd__fill_2
XFILLER_6_13 vssd1 vssd1 vccd1 vccd1 sky130_fd_sc_hd__decap_4
XFILLER_6_35 vssd1 vssd1 vccd1 vccd1 sky130_fd_sc_hd__fill_1
X_113__13 clknet_1_1__leaf__070_ vssd1 vssd1 vccd1 vccd1 net26 sky130_fd_sc_hd__inv_2
Xoutput8 net8 vssd1 vssd1 vccd1 vccd1 io_out[4] sky130_fd_sc_hd__buf_2
Xoutput10 net10 vssd1 vssd1 vccd1 vccd1 io_out[6] sky130_fd_sc_hd__buf_2
XTAP_113 vssd1 vccd1 sky130_fd_sc_hd__tapvpwrvgnd_1
XFILLER_22_146 vssd1 vssd1 vccd1 vccd1 sky130_fd_sc_hd__decap_4
XTAP_102 vssd1 vccd1 sky130_fd_sc_hd__tapvpwrvgnd_1
X_292_ _062_ CIRCUIT_1111.MEMORY_3.d net23 vssd1 vssd1 vccd1 vccd1 CIRCUIT_1111.MEMORY_3.s_currentState
+ sky130_fd_sc_hd__dfrtp_1
XFILLER_13_113 vssd1 vssd1 vccd1 vccd1 sky130_fd_sc_hd__fill_2
XFILLER_7_9 vssd1 vssd1 vccd1 vccd1 sky130_fd_sc_hd__decap_4
XFILLER_3_69 vssd1 vssd1 vccd1 vccd1 sky130_fd_sc_hd__fill_1
X_275_ _032_ CIRCUIT_1111.full_counter_1.seconds_counter_1.custom_counter_4_1.MEMORY_1.d
+ _031_ vssd1 vssd1 vccd1 vccd1 CIRCUIT_1111.full_counter_1.seconds_counter_1.custom_counter_4_1.MEMORY_1.s_currentState
+ sky130_fd_sc_hd__dfrtp_1
XFILLER_3_3 vssd1 vssd1 vccd1 vccd1 sky130_fd_sc_hd__fill_2
X_258_ net17 _067_ vssd1 vssd1 vccd1 vccd1 net4 sky130_fd_sc_hd__dfxtp_1
X_189_ _088_ _098_ vssd1 vssd1 vccd1 vccd1 net2 sky130_fd_sc_hd__xor2_1
XFILLER_9_57 vssd1 vssd1 vccd1 vccd1 sky130_fd_sc_hd__fill_2
XFILLER_18_22 vssd1 vssd1 vccd1 vccd1 sky130_fd_sc_hd__decap_6
XFILLER_20_34 vssd1 vssd1 vccd1 vccd1 sky130_fd_sc_hd__decap_4
XFILLER_20_23 vssd1 vssd1 vccd1 vccd1 sky130_fd_sc_hd__decap_4
XFILLER_16_100 vssd1 vssd1 vccd1 vccd1 sky130_fd_sc_hd__decap_4
Xoutput11 net11 vssd1 vssd1 vccd1 vccd1 io_out[7] sky130_fd_sc_hd__buf_2
Xoutput9 net9 vssd1 vssd1 vccd1 vccd1 io_out[5] sky130_fd_sc_hd__buf_2
XTAP_114 vssd1 vccd1 sky130_fd_sc_hd__tapvpwrvgnd_1
XTAP_103 vssd1 vccd1 sky130_fd_sc_hd__tapvpwrvgnd_1
X_291_ _060_ CIRCUIT_1111.MEMORY_4.d net24 vssd1 vssd1 vccd1 vccd1 net11 sky130_fd_sc_hd__dfrtp_2
XFILLER_10_128 vssd1 vssd1 vccd1 vccd1 sky130_fd_sc_hd__fill_2
X_274_ _030_ CIRCUIT_1111.full_counter_1.seconds_counter_1.custom_counter_4_2.MEMORY_3.d
+ _029_ vssd1 vssd1 vccd1 vccd1 CIRCUIT_1111.full_counter_1.seconds_counter_1.custom_counter_4_2.MEMORY_3.s_currentState
+ sky130_fd_sc_hd__dfrtp_1
XFILLER_0_27 vssd1 vssd1 vccd1 vccd1 sky130_fd_sc_hd__fill_1
X_257_ net16 _066_ vssd1 vssd1 vccd1 vccd1 net3 sky130_fd_sc_hd__dfxtp_1
X_188_ _094_ _097_ vssd1 vssd1 vccd1 vccd1 _098_ sky130_fd_sc_hd__or2_1
XFILLER_15_9 vssd1 vssd1 vccd1 vccd1 sky130_fd_sc_hd__fill_1
XFILLER_20_13 vssd1 vssd1 vccd1 vccd1 sky130_fd_sc_hd__fill_1
XFILLER_1_81 vssd1 vssd1 vccd1 vccd1 sky130_ef_sc_hd__decap_12
XFILLER_10_90 vssd1 vssd1 vccd1 vccd1 sky130_fd_sc_hd__decap_8
Xoutput12 net12 vssd1 vssd1 vccd1 vccd1 io_out[8] sky130_fd_sc_hd__buf_2
XFILLER_15_79 vssd1 vssd1 vccd1 vccd1 sky130_fd_sc_hd__decap_6
XFILLER_15_57 vssd1 vssd1 vccd1 vccd1 sky130_fd_sc_hd__fill_2
XTAP_115 vssd1 vccd1 sky130_fd_sc_hd__tapvpwrvgnd_1
XTAP_104 vssd1 vccd1 sky130_fd_sc_hd__tapvpwrvgnd_1
XFILLER_11_3 vssd1 vssd1 vccd1 vccd1 sky130_fd_sc_hd__fill_2
XFILLER_22_126 vssd1 vssd1 vccd1 vccd1 sky130_fd_sc_hd__decap_4
X_290_ _058_ CIRCUIT_1111.MEMORY_6.d net25 vssd1 vssd1 vccd1 vccd1 CIRCUIT_1111.MEMORY_6.s_currentState
+ sky130_fd_sc_hd__dfrtp_4
XFILLER_9_119 vssd1 vssd1 vccd1 vccd1 sky130_fd_sc_hd__decap_4
XFILLER_8_141 vssd1 vssd1 vccd1 vccd1 sky130_ef_sc_hd__decap_12
XFILLER_5_100 vssd1 vssd1 vccd1 vccd1 sky130_ef_sc_hd__decap_12
X_273_ _028_ CIRCUIT_1111.full_counter_1.seconds_counter_1.custom_counter_4_2.MEMORY_2.d
+ _027_ vssd1 vssd1 vccd1 vccd1 CIRCUIT_1111.full_counter_1.seconds_counter_1.custom_counter_4_2.MEMORY_2.s_currentState
+ sky130_fd_sc_hd__dfrtp_1
XFILLER_23_79 vssd1 vssd1 vccd1 vccd1 sky130_fd_sc_hd__decap_4
XFILLER_23_57 vssd1 vssd1 vccd1 vccd1 sky130_fd_sc_hd__fill_2
XFILLER_4_81 vssd1 vssd1 vccd1 vccd1 sky130_fd_sc_hd__decap_3
X_256_ net15 _065_ vssd1 vssd1 vccd1 vccd1 net13 sky130_fd_sc_hd__dfxtp_1
X_241__9 clknet_1_1__leaf__068_ vssd1 vssd1 vccd1 vccd1 net22 sky130_fd_sc_hd__inv_2
X_187_ CIRCUIT_1111.full_counter_1.seconds_counter_1.custom_counter_4_1.MEMORY_4.s_currentState
+ _095_ _096_ CIRCUIT_1111.MEMORY_7.s_currentState vssd1 vssd1 vccd1 vccd1 _097_ sky130_fd_sc_hd__a22o_1
XFILLER_1_93 vssd1 vssd1 vccd1 vccd1 sky130_ef_sc_hd__decap_12
X_239_ CIRCUIT_1111.full_counter_1.seconds_counter_1.custom_counter_4_1.MEMORY_3.s_currentState
+ vssd1 vssd1 vccd1 vccd1 _038_ sky130_fd_sc_hd__clkinv_2
XFILLER_20_58 vssd1 vssd1 vccd1 vccd1 sky130_fd_sc_hd__decap_4
XANTENNA_clkbuf_0_clk_A clk vssd1 vssd1 vccd1 vccd1 sky130_fd_sc_hd__diode_2
XFILLER_6_27 vssd1 vssd1 vccd1 vccd1 sky130_fd_sc_hd__fill_1
Xoutput13 net13 vssd1 vssd1 vccd1 vccd1 io_out[9] sky130_fd_sc_hd__buf_2
XTAP_116 vssd1 vccd1 sky130_fd_sc_hd__tapvpwrvgnd_1
XTAP_105 vssd1 vccd1 sky130_fd_sc_hd__tapvpwrvgnd_1
XFILLER_16_146 vssd1 vssd1 vccd1 vccd1 sky130_fd_sc_hd__decap_4
XFILLER_13_138 vssd1 vssd1 vccd1 vccd1 sky130_fd_sc_hd__decap_4
XFILLER_3_28 vssd1 vssd1 vccd1 vccd1 sky130_fd_sc_hd__decap_4
XFILLER_8_153 vssd1 vssd1 vccd1 vccd1 sky130_ef_sc_hd__decap_12
X_272_ CIRCUIT_1111.full_counter_1.seconds_counter_1.MEMORY_5.s_currentState CIRCUIT_1111.full_counter_1.seconds_counter_1.custom_counter_4_2.MEMORY_1.d
+ _026_ vssd1 vssd1 vccd1 vccd1 CIRCUIT_1111.full_counter_1.seconds_counter_1.custom_counter_4_2.MEMORY_1.s_currentState
+ sky130_fd_sc_hd__dfrtp_1
XFILLER_12_37 vssd1 vssd1 vccd1 vccd1 sky130_fd_sc_hd__decap_4
XFILLER_5_167 vssd1 vssd1 vccd1 vccd1 sky130_fd_sc_hd__fill_1
XFILLER_4_93 vssd1 vssd1 vccd1 vccd1 sky130_fd_sc_hd__fill_1
X_255_ net14 _064_ vssd1 vssd1 vccd1 vccd1 net12 sky130_fd_sc_hd__dfxtp_1
X_186_ CIRCUIT_1111.full_counter_1.custom_counter_4_1.MEMORY_4.s_currentState CIRCUIT_1111.full_counter_1.custom_counter_4_2.MEMORY_4.s_currentState
+ CIRCUIT_1111.MEMORY_6.s_currentState vssd1 vssd1 vccd1 vccd1 _096_ sky130_fd_sc_hd__mux2_1
XFILLER_0_29 vssd1 vssd1 vccd1 vccd1 sky130_ef_sc_hd__decap_12
XFILLER_9_27 vssd1 vssd1 vccd1 vccd1 sky130_fd_sc_hd__fill_1
XFILLER_1_3 vssd1 vssd1 vccd1 vccd1 sky130_fd_sc_hd__fill_2
X_169_ CIRCUIT_1111.full_counter_1.seconds_counter_1.custom_counter_4_2.MEMORY_1.s_currentState
+ vssd1 vssd1 vccd1 vccd1 CIRCUIT_1111.full_counter_1.seconds_counter_1.custom_counter_4_2.MEMORY_1.d
+ sky130_fd_sc_hd__inv_2
X_238_ CIRCUIT_1111.full_counter_1.seconds_counter_1.custom_counter_4_1.MEMORY_2.s_currentState
+ vssd1 vssd1 vccd1 vccd1 _036_ sky130_fd_sc_hd__clkinv_2
X_131__17 clknet_1_1__leaf__070_ vssd1 vssd1 vccd1 vccd1 net30 sky130_fd_sc_hd__inv_2
XFILLER_19_155 vssd1 vssd1 vccd1 vccd1 sky130_ef_sc_hd__decap_12
XFILLER_19_122 vssd1 vssd1 vccd1 vccd1 sky130_fd_sc_hd__decap_6
XFILLER_19_111 vssd1 vssd1 vccd1 vccd1 sky130_fd_sc_hd__fill_1
XFILLER_20_9 vssd1 vssd1 vccd1 vccd1 sky130_fd_sc_hd__decap_4
XFILLER_16_136 vssd1 vssd1 vccd1 vccd1 sky130_fd_sc_hd__decap_4
XFILLER_22_139 vssd1 vssd1 vccd1 vccd1 sky130_fd_sc_hd__fill_1
XTAP_106 vssd1 vccd1 sky130_fd_sc_hd__tapvpwrvgnd_1
XPHY_0 vssd1 vssd1 vccd1 vccd1 sky130_fd_sc_hd__decap_3
XFILLER_16_80 vssd1 vssd1 vccd1 vccd1 sky130_fd_sc_hd__decap_4
XFILLER_8_165 vssd1 vssd1 vccd1 vccd1 sky130_fd_sc_hd__decap_3
XFILLER_12_27 vssd1 vssd1 vccd1 vccd1 sky130_fd_sc_hd__fill_1
X_271_ net20 CIRCUIT_1111.full_counter_1.ARITH_2.aEqualsB vssd1 vssd1 vccd1 vccd1
+ CIRCUIT_1111.full_counter_1.MEMORY_6.s_currentState sky130_fd_sc_hd__dfxtp_1
XFILLER_5_113 vssd1 vssd1 vccd1 vccd1 sky130_ef_sc_hd__decap_12
XFILLER_4_50 vssd1 vssd1 vccd1 vccd1 sky130_ef_sc_hd__decap_12
XANTENNA__231__6_A clknet_1_0__leaf__068_ vssd1 vssd1 vccd1 vccd1 sky130_fd_sc_hd__diode_2
X_185_ CIRCUIT_1111.MEMORY_6.s_currentState CIRCUIT_1111.MEMORY_7.s_currentState vssd1
+ vssd1 vccd1 vccd1 _095_ sky130_fd_sc_hd__nor2_1
XFILLER_24_91 vssd1 vssd1 vccd1 vccd1 sky130_fd_sc_hd__decap_6
X_168_ _083_ vssd1 vssd1 vccd1 vccd1 CIRCUIT_1111.full_counter_1.ARITH_2.aEqualsB
+ sky130_fd_sc_hd__clkbuf_1
X_237_ CIRCUIT_1111.full_counter_1.seconds_counter_1.custom_counter_4_1.MEMORY_1.s_currentState
+ vssd1 vssd1 vccd1 vccd1 _034_ sky130_fd_sc_hd__clkinv_2
XFILLER_20_27 vssd1 vssd1 vccd1 vccd1 sky130_fd_sc_hd__fill_1
XFILLER_19_167 vssd1 vssd1 vccd1 vccd1 sky130_fd_sc_hd__fill_1
XFILLER_13_9 vssd1 vssd1 vccd1 vccd1 sky130_fd_sc_hd__fill_1
XFILLER_6_29 vssd1 vssd1 vccd1 vccd1 sky130_fd_sc_hd__decap_6
XFILLER_10_82 vssd1 vssd1 vccd1 vccd1 sky130_fd_sc_hd__fill_2
XTAP_107 vssd1 vccd1 sky130_fd_sc_hd__tapvpwrvgnd_1
XPHY_1 vssd1 vssd1 vccd1 vccd1 sky130_fd_sc_hd__decap_3
XFILLER_12_162 vssd1 vssd1 vccd1 vccd1 sky130_fd_sc_hd__decap_6
X_270_ net19 CIRCUIT_1111.full_counter_1.ARITH_1.aEqualsB vssd1 vssd1 vccd1 vccd1
+ CIRCUIT_1111.full_counter_1.MEMORY_3.s_currentState sky130_fd_sc_hd__dfxtp_2
XFILLER_5_125 vssd1 vssd1 vccd1 vccd1 sky130_ef_sc_hd__decap_12
XFILLER_4_62 vssd1 vssd1 vccd1 vccd1 sky130_fd_sc_hd__decap_6
XFILLER_4_73 vssd1 vssd1 vccd1 vccd1 sky130_fd_sc_hd__decap_8
XFILLER_2_139 vssd1 vssd1 vccd1 vccd1 sky130_fd_sc_hd__fill_1
X_253_ CIRCUIT_1111.MEMORY_2.s_currentState vssd1 vssd1 vccd1 vccd1 _062_ sky130_fd_sc_hd__clkinv_2
X_184_ _086_ _093_ vssd1 vssd1 vccd1 vccd1 _094_ sky130_fd_sc_hd__nor2_1
XFILLER_1_161 vssd1 vssd1 vccd1 vccd1 sky130_fd_sc_hd__decap_6
X_167_ CIRCUIT_1111.full_counter_1.custom_counter_4_2.MEMORY_4.s_currentState CIRCUIT_1111.full_counter_1.custom_counter_4_2.MEMORY_2.s_currentState
+ CIRCUIT_1111.full_counter_1.custom_counter_4_2.MEMORY_1.d CIRCUIT_1111.full_counter_1.custom_counter_4_2.MEMORY_3.d
+ vssd1 vssd1 vccd1 vccd1 _083_ sky130_fd_sc_hd__and4_1
X_236_ CIRCUIT_1111.custom_counter_10_1.MEMORY_6.s_currentState vssd1 vssd1 vccd1
+ vccd1 _032_ sky130_fd_sc_hd__inv_2
XFILLER_19_113 vssd1 vssd1 vccd1 vccd1 sky130_fd_sc_hd__decap_4
XFILLER_19_81 vssd1 vssd1 vccd1 vccd1 sky130_fd_sc_hd__decap_4
XFILLER_16_127 vssd1 vssd1 vccd1 vccd1 sky130_fd_sc_hd__decap_4
XFILLER_22_119 vssd1 vssd1 vccd1 vccd1 sky130_fd_sc_hd__decap_4
XTAP_108 vssd1 vccd1 sky130_fd_sc_hd__tapvpwrvgnd_1
Xclkbuf_0_clk clk vssd1 vssd1 vccd1 vccd1 clknet_0_clk sky130_fd_sc_hd__clkbuf_16
XFILLER_21_93 vssd1 vssd1 vccd1 vccd1 sky130_fd_sc_hd__decap_4
XPHY_2 vssd1 vssd1 vccd1 vccd1 sky130_fd_sc_hd__decap_3
XFILLER_21_130 vssd1 vssd1 vccd1 vccd1 sky130_fd_sc_hd__decap_4
XFILLER_7_51 vssd1 vssd1 vccd1 vccd1 sky130_fd_sc_hd__decap_4
XFILLER_16_93 vssd1 vssd1 vccd1 vccd1 sky130_fd_sc_hd__decap_4
XFILLER_12_141 vssd1 vssd1 vccd1 vccd1 sky130_fd_sc_hd__fill_2
XFILLER_12_29 vssd1 vssd1 vccd1 vccd1 sky130_fd_sc_hd__decap_3
XFILLER_5_137 vssd1 vssd1 vccd1 vccd1 sky130_ef_sc_hd__decap_12
XFILLER_4_41 vssd1 vssd1 vccd1 vccd1 sky130_fd_sc_hd__decap_4
XFILLER_4_85 vssd1 vssd1 vccd1 vccd1 sky130_fd_sc_hd__decap_8
XFILLER_3_9 vssd1 vssd1 vccd1 vccd1 sky130_fd_sc_hd__decap_4
X_252_ CIRCUIT_1111.MEMORY_3.s_currentState vssd1 vssd1 vccd1 vccd1 _060_ sky130_fd_sc_hd__clkinv_2
XFILLER_13_72 vssd1 vssd1 vccd1 vccd1 sky130_fd_sc_hd__decap_4
XFILLER_9_19 vssd1 vssd1 vccd1 vccd1 sky130_fd_sc_hd__decap_8
X_183_ _089_ _090_ _091_ _092_ vssd1 vssd1 vccd1 vccd1 _093_ sky130_fd_sc_hd__a31oi_4
X_128__14 clknet_1_1__leaf__070_ vssd1 vssd1 vccd1 vccd1 net27 sky130_fd_sc_hd__inv_2
X_235_ CIRCUIT_1111.full_counter_1.seconds_counter_1.custom_counter_4_2.MEMORY_2.s_currentState
+ vssd1 vssd1 vccd1 vccd1 _030_ sky130_fd_sc_hd__clkinv_2
XFILLER_20_29 vssd1 vssd1 vccd1 vccd1 sky130_fd_sc_hd__fill_2
X_166_ CIRCUIT_1111.full_counter_1.custom_counter_4_2.MEMORY_3.s_currentState vssd1
+ vssd1 vccd1 vccd1 CIRCUIT_1111.full_counter_1.custom_counter_4_2.MEMORY_3.d sky130_fd_sc_hd__inv_2
XFILLER_10_73 vssd1 vssd1 vccd1 vccd1 sky130_fd_sc_hd__fill_2
X_149_ net1 _080_ vssd1 vssd1 vccd1 vccd1 _081_ sky130_fd_sc_hd__or2_1
XTAP_109 vssd1 vccd1 sky130_fd_sc_hd__tapvpwrvgnd_1
XFILLER_21_61 vssd1 vssd1 vccd1 vccd1 sky130_fd_sc_hd__decap_4
XFILLER_13_109 vssd1 vssd1 vccd1 vccd1 sky130_fd_sc_hd__decap_3
XPHY_3 vssd1 vssd1 vccd1 vccd1 sky130_fd_sc_hd__decap_3
XFILLER_7_96 vssd1 vssd1 vccd1 vccd1 sky130_fd_sc_hd__decap_4
XFILLER_16_72 vssd1 vssd1 vccd1 vccd1 sky130_fd_sc_hd__fill_1
X_218__3 clknet_1_0__leaf__068_ vssd1 vssd1 vccd1 vccd1 net16 sky130_fd_sc_hd__inv_2
XFILLER_5_149 vssd1 vssd1 vccd1 vccd1 sky130_ef_sc_hd__decap_12
XFILLER_4_97 vssd1 vssd1 vccd1 vccd1 sky130_ef_sc_hd__decap_12
X_251_ net11 vssd1 vssd1 vccd1 vccd1 _058_ sky130_fd_sc_hd__clkinv_2
X_182_ CIRCUIT_1111.full_counter_1.custom_counter_4_2.MEMORY_1.s_currentState CIRCUIT_1111.MEMORY_7.s_currentState
+ CIRCUIT_1111.MEMORY_6.s_currentState vssd1 vssd1 vccd1 vccd1 _092_ sky130_fd_sc_hd__and3b_1
XFILLER_18_29 vssd1 vssd1 vccd1 vccd1 sky130_fd_sc_hd__decap_3
XFILLER_24_83 vssd1 vssd1 vccd1 vccd1 sky130_fd_sc_hd__fill_1
X_165_ CIRCUIT_1111.full_counter_1.custom_counter_4_2.MEMORY_1.s_currentState vssd1
+ vssd1 vccd1 vccd1 CIRCUIT_1111.full_counter_1.custom_counter_4_2.MEMORY_1.d sky130_fd_sc_hd__inv_2
XFILLER_1_54 vssd1 vssd1 vccd1 vccd1 sky130_fd_sc_hd__fill_2
XFILLER_1_21 vssd1 vssd1 vccd1 vccd1 sky130_fd_sc_hd__decap_3
X_234_ CIRCUIT_1111.full_counter_1.seconds_counter_1.custom_counter_4_2.MEMORY_1.s_currentState
+ vssd1 vssd1 vccd1 vccd1 _028_ sky130_fd_sc_hd__clkinv_2
XFILLER_19_148 vssd1 vssd1 vccd1 vccd1 sky130_fd_sc_hd__decap_4
XFILLER_19_72 vssd1 vssd1 vccd1 vccd1 sky130_fd_sc_hd__decap_4
X_148_ net12 net4 _073_ vssd1 vssd1 vccd1 vccd1 _080_ sky130_fd_sc_hd__mux2_1
XFILLER_10_85 vssd1 vssd1 vccd1 vccd1 sky130_fd_sc_hd__fill_2
XPHY_4 vssd1 vssd1 vccd1 vccd1 sky130_fd_sc_hd__decap_3
XFILLER_11_9 vssd1 vssd1 vccd1 vccd1 sky130_fd_sc_hd__decap_8
XFILLER_21_165 vssd1 vssd1 vccd1 vccd1 sky130_fd_sc_hd__decap_3
Xclkbuf_1_0__f__072_ clknet_0__072_ vssd1 vssd1 vccd1 vccd1 clknet_1_0__leaf__072_
+ sky130_fd_sc_hd__clkbuf_16
XFILLER_23_19 vssd1 vssd1 vccd1 vccd1 sky130_fd_sc_hd__decap_8
X_220__5 clknet_1_1__leaf__068_ vssd1 vssd1 vccd1 vccd1 net18 sky130_fd_sc_hd__inv_2
XFILLER_2_109 vssd1 vssd1 vccd1 vccd1 sky130_ef_sc_hd__decap_12
XFILLER_13_96 vssd1 vssd1 vccd1 vccd1 sky130_fd_sc_hd__decap_8
X_250_ CIRCUIT_1111.MEMORY_6.s_currentState vssd1 vssd1 vccd1 vccd1 _056_ sky130_fd_sc_hd__clkinv_2
X_181_ CIRCUIT_1111.MEMORY_7.s_currentState CIRCUIT_1111.full_counter_1.custom_counter_4_1.MEMORY_1.s_currentState
+ vssd1 vssd1 vccd1 vccd1 _091_ sky130_fd_sc_hd__nand2_1
X_221__23 clknet_1_1__leaf__071_ vssd1 vssd1 vccd1 vccd1 net36 sky130_fd_sc_hd__inv_2
X_164_ _082_ vssd1 vssd1 vccd1 vccd1 CIRCUIT_1111.full_counter_1.ARITH_1.aEqualsB
+ sky130_fd_sc_hd__clkbuf_1
X_233_ CIRCUIT_1111.full_counter_1.seconds_counter_1.MEMORY_6.s_currentState clknet_1_0__leaf__072_
+ vssd1 vssd1 vccd1 vccd1 _026_ sky130_fd_sc_hd__nor2_2
X_147_ _079_ vssd1 vssd1 vccd1 vccd1 _065_ sky130_fd_sc_hd__clkbuf_1
XFILLER_18_3 vssd1 vssd1 vccd1 vccd1 sky130_fd_sc_hd__decap_3
XFILLER_24_141 vssd1 vssd1 vccd1 vccd1 sky130_fd_sc_hd__fill_2
XFILLER_21_30 vssd1 vssd1 vccd1 vccd1 sky130_fd_sc_hd__decap_4
XPHY_5 vssd1 vssd1 vccd1 vccd1 sky130_fd_sc_hd__decap_3
XFILLER_21_111 vssd1 vssd1 vccd1 vccd1 sky130_fd_sc_hd__fill_1
XFILLER_21_100 vssd1 vssd1 vccd1 vccd1 sky130_fd_sc_hd__decap_4
XFILLER_16_85 vssd1 vssd1 vccd1 vccd1 sky130_fd_sc_hd__fill_2
XFILLER_12_155 vssd1 vssd1 vccd1 vccd1 sky130_fd_sc_hd__decap_4
XFILLER_12_133 vssd1 vssd1 vccd1 vccd1 sky130_fd_sc_hd__decap_6
XFILLER_8_137 vssd1 vssd1 vccd1 vccd1 sky130_fd_sc_hd__decap_3
Xclkbuf_1_0__f__071_ clknet_0__071_ vssd1 vssd1 vccd1 vccd1 clknet_1_0__leaf__071_
+ sky130_fd_sc_hd__clkbuf_16
XFILLER_13_64 vssd1 vssd1 vccd1 vccd1 sky130_fd_sc_hd__decap_4
XFILLER_13_42 vssd1 vssd1 vccd1 vccd1 sky130_fd_sc_hd__decap_6
X_180_ CIRCUIT_1111.MEMORY_7.s_currentState CIRCUIT_1111.full_counter_1.seconds_counter_1.custom_counter_4_2.MEMORY_1.s_currentState
+ CIRCUIT_1111.MEMORY_6.s_currentState vssd1 vssd1 vccd1 vccd1 _090_ sky130_fd_sc_hd__o21ai_1
XFILLER_1_9 vssd1 vssd1 vccd1 vccd1 sky130_ef_sc_hd__decap_12
XFILLER_24_85 vssd1 vssd1 vccd1 vccd1 sky130_fd_sc_hd__fill_2
X_163_ CIRCUIT_1111.full_counter_1.custom_counter_4_1.MEMORY_4.s_currentState CIRCUIT_1111.full_counter_1.custom_counter_4_1.MEMORY_2.s_currentState
+ CIRCUIT_1111.full_counter_1.custom_counter_4_1.MEMORY_1.d CIRCUIT_1111.full_counter_1.custom_counter_4_1.MEMORY_3.d
+ vssd1 vssd1 vccd1 vccd1 _082_ sky130_fd_sc_hd__and4_1
XFILLER_1_34 vssd1 vssd1 vccd1 vccd1 sky130_ef_sc_hd__decap_12
XFILLER_19_117 vssd1 vssd1 vccd1 vccd1 sky130_fd_sc_hd__fill_1
XFILLER_19_85 vssd1 vssd1 vccd1 vccd1 sky130_fd_sc_hd__fill_1
XFILLER_10_65 vssd1 vssd1 vccd1 vccd1 sky130_fd_sc_hd__decap_8
XFILLER_10_98 vssd1 vssd1 vccd1 vccd1 sky130_fd_sc_hd__fill_2
X_215_ CIRCUIT_1111.MEMORY_2.s_currentState vssd1 vssd1 vccd1 vccd1 CIRCUIT_1111.MEMORY_2.d
+ sky130_fd_sc_hd__inv_2
X_146_ net1 _078_ vssd1 vssd1 vccd1 vccd1 _079_ sky130_fd_sc_hd__and2b_1
XFILLER_24_153 vssd1 vssd1 vccd1 vccd1 sky130_fd_sc_hd__decap_4
X_112__12 clknet_1_0__leaf__070_ vssd1 vssd1 vccd1 vccd1 net25 sky130_fd_sc_hd__inv_2
XPHY_6 vssd1 vssd1 vccd1 vccd1 sky130_fd_sc_hd__decap_3
XFILLER_7_55 vssd1 vssd1 vccd1 vccd1 sky130_fd_sc_hd__fill_1
XFILLER_7_77 vssd1 vssd1 vccd1 vccd1 sky130_fd_sc_hd__decap_4
XFILLER_7_88 vssd1 vssd1 vccd1 vccd1 sky130_fd_sc_hd__decap_4
XFILLER_21_145 vssd1 vssd1 vccd1 vccd1 sky130_ef_sc_hd__decap_12
Xclkbuf_1_1__f__069_ clknet_0__069_ vssd1 vssd1 vccd1 vccd1 clknet_1_1__leaf__069_
+ sky130_fd_sc_hd__clkbuf_16
Xclkbuf_1_0__f__070_ clknet_0__070_ vssd1 vssd1 vccd1 vccd1 clknet_1_0__leaf__070_
+ sky130_fd_sc_hd__clkbuf_16
XFILLER_4_34 vssd1 vssd1 vccd1 vccd1 sky130_fd_sc_hd__decap_4
XFILLER_4_45 vssd1 vssd1 vccd1 vccd1 sky130_fd_sc_hd__fill_1
XFILLER_4_141 vssd1 vssd1 vccd1 vccd1 sky130_ef_sc_hd__decap_12
XFILLER_13_54 vssd1 vssd1 vccd1 vccd1 sky130_fd_sc_hd__fill_2
XFILLER_1_111 vssd1 vssd1 vccd1 vccd1 sky130_fd_sc_hd__fill_1
XFILLER_8_3 vssd1 vssd1 vccd1 vccd1 sky130_fd_sc_hd__fill_2
X_231__6 clknet_1_0__leaf__068_ vssd1 vssd1 vccd1 vccd1 net19 sky130_fd_sc_hd__inv_2
XFILLER_24_97 vssd1 vssd1 vccd1 vccd1 sky130_fd_sc_hd__fill_1
X_162_ CIRCUIT_1111.full_counter_1.custom_counter_4_1.MEMORY_3.s_currentState vssd1
+ vssd1 vccd1 vccd1 CIRCUIT_1111.full_counter_1.custom_counter_4_1.MEMORY_3.d sky130_fd_sc_hd__inv_2
XFILLER_1_57 vssd1 vssd1 vccd1 vccd1 sky130_ef_sc_hd__decap_12
XFILLER_1_46 vssd1 vssd1 vccd1 vccd1 sky130_fd_sc_hd__decap_8
Xinput1 rst vssd1 vssd1 vccd1 vccd1 net1 sky130_fd_sc_hd__dlymetal6s2s_1
XFILLER_19_107 vssd1 vssd1 vccd1 vccd1 sky130_fd_sc_hd__decap_4
XFILLER_19_64 vssd1 vssd1 vccd1 vccd1 sky130_fd_sc_hd__decap_4
XFILLER_19_53 vssd1 vssd1 vccd1 vccd1 sky130_fd_sc_hd__decap_3
XTAP_90 vssd1 vccd1 sky130_fd_sc_hd__tapvpwrvgnd_1
XFILLER_10_44 vssd1 vssd1 vccd1 vccd1 sky130_fd_sc_hd__fill_1
X_214_ CIRCUIT_1111.MEMORY_3.s_currentState vssd1 vssd1 vccd1 vccd1 CIRCUIT_1111.MEMORY_3.d
+ sky130_fd_sc_hd__clkinv_2
X_145_ net13 net12 _073_ vssd1 vssd1 vccd1 vccd1 _078_ sky130_fd_sc_hd__mux2_1
XFILLER_24_132 vssd1 vssd1 vccd1 vccd1 sky130_fd_sc_hd__decap_4
XFILLER_21_54 vssd1 vssd1 vccd1 vccd1 sky130_fd_sc_hd__fill_2
XPHY_7 vssd1 vssd1 vccd1 vccd1 sky130_fd_sc_hd__decap_3
XFILLER_23_3 vssd1 vssd1 vccd1 vccd1 sky130_fd_sc_hd__decap_6
XFILLER_21_157 vssd1 vssd1 vccd1 vccd1 sky130_fd_sc_hd__decap_8
XFILLER_21_113 vssd1 vssd1 vccd1 vccd1 sky130_fd_sc_hd__fill_2
XFILLER_7_23 vssd1 vssd1 vccd1 vccd1 sky130_fd_sc_hd__fill_1
XANTENNA__240__8_A clknet_1_0__leaf__068_ vssd1 vssd1 vccd1 vccd1 sky130_fd_sc_hd__diode_2
Xclkbuf_1_1__f__068_ clknet_0__068_ vssd1 vssd1 vccd1 vccd1 clknet_1_1__leaf__068_
+ sky130_fd_sc_hd__clkbuf_16
XFILLER_4_13 vssd1 vssd1 vccd1 vccd1 sky130_fd_sc_hd__fill_1
XFILLER_4_68 vssd1 vssd1 vccd1 vccd1 sky130_fd_sc_hd__fill_1
XFILLER_4_153 vssd1 vssd1 vccd1 vccd1 sky130_ef_sc_hd__decap_12
XFILLER_1_167 vssd1 vssd1 vccd1 vccd1 sky130_fd_sc_hd__fill_1
XFILLER_24_54 vssd1 vssd1 vccd1 vccd1 sky130_fd_sc_hd__fill_2
XFILLER_24_21 vssd1 vssd1 vccd1 vccd1 sky130_fd_sc_hd__decap_6
X_230_ CIRCUIT_1111.custom_counter_10_1.MEMORY_8.s_currentState vssd1 vssd1 vccd1
+ vccd1 _023_ sky130_fd_sc_hd__clkinv_2
X_161_ CIRCUIT_1111.full_counter_1.custom_counter_4_1.MEMORY_1.s_currentState vssd1
+ vssd1 vccd1 vccd1 CIRCUIT_1111.full_counter_1.custom_counter_4_1.MEMORY_1.d sky130_fd_sc_hd__inv_2
XFILLER_1_69 vssd1 vssd1 vccd1 vccd1 sky130_ef_sc_hd__decap_12
XTAP_91 vssd1 vccd1 sky130_fd_sc_hd__tapvpwrvgnd_1
XTAP_80 vssd1 vccd1 sky130_fd_sc_hd__tapvpwrvgnd_1
X_213_ CIRCUIT_1111.custom_counter_10_1.MEMORY_1.s_currentState vssd1 vssd1 vccd1
+ vccd1 CIRCUIT_1111.custom_counter_10_1.MEMORY_1.d sky130_fd_sc_hd__inv_2
X_144_ _077_ vssd1 vssd1 vccd1 vccd1 _066_ sky130_fd_sc_hd__clkbuf_1
XFILLER_19_76 vssd1 vssd1 vccd1 vccd1 sky130_fd_sc_hd__fill_1
XFILLER_18_141 vssd1 vssd1 vccd1 vccd1 sky130_fd_sc_hd__fill_2
XFILLER_16_3 vssd1 vssd1 vccd1 vccd1 sky130_fd_sc_hd__fill_2
XFILLER_15_166 vssd1 vssd1 vccd1 vccd1 sky130_fd_sc_hd__fill_2
XPHY_8 vssd1 vssd1 vccd1 vccd1 sky130_fd_sc_hd__decap_3
X_127_ CIRCUIT_1111.full_counter_1.seconds_counter_1.MEMORY_6.s_currentState clknet_1_0__leaf__072_
+ vssd1 vssd1 vccd1 vccd1 _027_ sky130_fd_sc_hd__nor2_2
XFILLER_7_57 vssd1 vssd1 vccd1 vccd1 sky130_fd_sc_hd__fill_2
XFILLER_21_125 vssd1 vssd1 vccd1 vccd1 sky130_fd_sc_hd__fill_1
XFILLER_16_66 vssd1 vssd1 vccd1 vccd1 sky130_fd_sc_hd__decap_6
XFILLER_16_33 vssd1 vssd1 vccd1 vccd1 sky130_fd_sc_hd__fill_1