* NGSPICE file created from tt2_tholin_multiplexed_counter.ext - technology: sky130B

* Black-box entry subcircuit for sky130_fd_sc_hd__fill_2 abstract view
.subckt sky130_fd_sc_hd__fill_2 VGND VNB VPB VPWR
.ends

* Black-box entry subcircuit for sky130_fd_sc_hd__decap_8 abstract view
.subckt sky130_fd_sc_hd__decap_8 VGND VNB VPB VPWR
.ends

* Black-box entry subcircuit for sky130_fd_sc_hd__decap_4 abstract view
.subckt sky130_fd_sc_hd__decap_4 VGND VNB VPB VPWR
.ends

* Black-box entry subcircuit for sky130_ef_sc_hd__decap_12 abstract view
.subckt sky130_ef_sc_hd__decap_12 VGND VNB VPB VPWR
.ends

* Black-box entry subcircuit for sky130_fd_sc_hd__nor2_2 abstract view
.subckt sky130_fd_sc_hd__nor2_2 A B VGND VNB VPB VPWR Y
.ends

* Black-box entry subcircuit for sky130_fd_sc_hd__inv_2 abstract view
.subckt sky130_fd_sc_hd__inv_2 A VGND VNB VPB VPWR Y
.ends

* Black-box entry subcircuit for sky130_fd_sc_hd__fill_1 abstract view
.subckt sky130_fd_sc_hd__fill_1 VGND VNB VPB VPWR
.ends

* Black-box entry subcircuit for sky130_fd_sc_hd__buf_4 abstract view
.subckt sky130_fd_sc_hd__buf_4 A VGND VNB VPB VPWR X
.ends

* Black-box entry subcircuit for sky130_fd_sc_hd__tapvpwrvgnd_1 abstract view
.subckt sky130_fd_sc_hd__tapvpwrvgnd_1 VGND VPWR
.ends

* Black-box entry subcircuit for sky130_fd_sc_hd__decap_6 abstract view
.subckt sky130_fd_sc_hd__decap_6 VGND VNB VPB VPWR
.ends

* Black-box entry subcircuit for sky130_fd_sc_hd__dfrtp_2 abstract view
.subckt sky130_fd_sc_hd__dfrtp_2 CLK D RESET_B VGND VNB VPB VPWR Q
.ends

* Black-box entry subcircuit for sky130_fd_sc_hd__decap_3 abstract view
.subckt sky130_fd_sc_hd__decap_3 VGND VNB VPB VPWR
.ends

* Black-box entry subcircuit for sky130_fd_sc_hd__dfrtp_4 abstract view
.subckt sky130_fd_sc_hd__dfrtp_4 CLK D RESET_B VGND VNB VPB VPWR Q
.ends

* Black-box entry subcircuit for sky130_fd_sc_hd__dfxtp_4 abstract view
.subckt sky130_fd_sc_hd__dfxtp_4 CLK D VGND VNB VPB VPWR Q
.ends

* Black-box entry subcircuit for sky130_fd_sc_hd__dfxtp_2 abstract view
.subckt sky130_fd_sc_hd__dfxtp_2 CLK D VGND VNB VPB VPWR Q
.ends

* Black-box entry subcircuit for sky130_fd_sc_hd__o31a_1 abstract view
.subckt sky130_fd_sc_hd__o31a_1 A1 A2 A3 B1 VGND VNB VPB VPWR X
.ends

* Black-box entry subcircuit for sky130_fd_sc_hd__a21o_1 abstract view
.subckt sky130_fd_sc_hd__a21o_1 A1 A2 B1 VGND VNB VPB VPWR X
.ends

* Black-box entry subcircuit for sky130_fd_sc_hd__o21ai_1 abstract view
.subckt sky130_fd_sc_hd__o21ai_1 A1 A2 B1 VGND VNB VPB VPWR Y
.ends

* Black-box entry subcircuit for sky130_fd_sc_hd__clkbuf_16 abstract view
.subckt sky130_fd_sc_hd__clkbuf_16 A VGND VNB VPB VPWR X
.ends

* Black-box entry subcircuit for sky130_fd_sc_hd__dfxtp_1 abstract view
.subckt sky130_fd_sc_hd__dfxtp_1 CLK D VGND VNB VPB VPWR Q
.ends

* Black-box entry subcircuit for sky130_fd_sc_hd__nor2_1 abstract view
.subckt sky130_fd_sc_hd__nor2_1 A B VGND VNB VPB VPWR Y
.ends

* Black-box entry subcircuit for sky130_fd_sc_hd__and3b_1 abstract view
.subckt sky130_fd_sc_hd__and3b_1 A_N B C VGND VNB VPB VPWR X
.ends

* Black-box entry subcircuit for sky130_fd_sc_hd__o21a_1 abstract view
.subckt sky130_fd_sc_hd__o21a_1 A1 A2 B1 VGND VNB VPB VPWR X
.ends

* Black-box entry subcircuit for sky130_fd_sc_hd__or2_2 abstract view
.subckt sky130_fd_sc_hd__or2_2 A B VGND VNB VPB VPWR X
.ends

* Black-box entry subcircuit for sky130_fd_sc_hd__a21oi_1 abstract view
.subckt sky130_fd_sc_hd__a21oi_1 A1 A2 B1 VGND VNB VPB VPWR Y
.ends

* Black-box entry subcircuit for sky130_fd_sc_hd__mux4_2 abstract view
.subckt sky130_fd_sc_hd__mux4_2 A0 A1 A2 A3 S0 S1 VGND VNB VPB VPWR X
.ends

* Black-box entry subcircuit for sky130_fd_sc_hd__clkbuf_2 abstract view
.subckt sky130_fd_sc_hd__clkbuf_2 A VGND VNB VPB VPWR X
.ends

* Black-box entry subcircuit for sky130_fd_sc_hd__nand2_2 abstract view
.subckt sky130_fd_sc_hd__nand2_2 A B VGND VNB VPB VPWR Y
.ends

* Black-box entry subcircuit for sky130_fd_sc_hd__and4_1 abstract view
.subckt sky130_fd_sc_hd__and4_1 A B C D VGND VNB VPB VPWR X
.ends

* Black-box entry subcircuit for sky130_fd_sc_hd__xor2_1 abstract view
.subckt sky130_fd_sc_hd__xor2_1 A B VGND VNB VPB VPWR X
.ends

* Black-box entry subcircuit for sky130_fd_sc_hd__and3_1 abstract view
.subckt sky130_fd_sc_hd__and3_1 A B C VGND VNB VPB VPWR X
.ends

* Black-box entry subcircuit for sky130_fd_sc_hd__and2_2 abstract view
.subckt sky130_fd_sc_hd__and2_2 A B VGND VNB VPB VPWR X
.ends

* Black-box entry subcircuit for sky130_fd_sc_hd__or2_1 abstract view
.subckt sky130_fd_sc_hd__or2_1 A B VGND VNB VPB VPWR X
.ends

* Black-box entry subcircuit for sky130_fd_sc_hd__a22o_2 abstract view
.subckt sky130_fd_sc_hd__a22o_2 A1 A2 B1 B2 VGND VNB VPB VPWR X
.ends

* Black-box entry subcircuit for sky130_fd_sc_hd__mux2_1 abstract view
.subckt sky130_fd_sc_hd__mux2_1 A0 A1 S VGND VNB VPB VPWR X
.ends

* Black-box entry subcircuit for sky130_fd_sc_hd__and2b_1 abstract view
.subckt sky130_fd_sc_hd__and2b_1 A_N B VGND VNB VPB VPWR X
.ends

* Black-box entry subcircuit for sky130_fd_sc_hd__a31oi_4 abstract view
.subckt sky130_fd_sc_hd__a31oi_4 A1 A2 A3 B1 VGND VNB VPB VPWR Y
.ends

* Black-box entry subcircuit for sky130_fd_sc_hd__o211a_1 abstract view
.subckt sky130_fd_sc_hd__o211a_1 A1 A2 B1 C1 VGND VNB VPB VPWR X
.ends

* Black-box entry subcircuit for sky130_fd_sc_hd__nand2_1 abstract view
.subckt sky130_fd_sc_hd__nand2_1 A B VGND VNB VPB VPWR Y
.ends

* Black-box entry subcircuit for sky130_fd_sc_hd__o21ai_2 abstract view
.subckt sky130_fd_sc_hd__o21ai_2 A1 A2 B1 VGND VNB VPB VPWR Y
.ends

* Black-box entry subcircuit for sky130_fd_sc_hd__or3b_2 abstract view
.subckt sky130_fd_sc_hd__or3b_2 A B C_N VGND VNB VPB VPWR X
.ends

.subckt tt2_tholin_multiplexed_counter clk io_out[0] io_out[10] io_out[11] io_out[1]
+ io_out[2] io_out[3] io_out[4] io_out[5] io_out[6] io_out[7] io_out[8] io_out[9]
+ rst vccd1 vssd1
XFILLER_22_166 vssd1 vssd1 vccd1 vccd1 sky130_fd_sc_hd__fill_2
XFILLER_22_122 vssd1 vssd1 vccd1 vccd1 sky130_fd_sc_hd__decap_8
XFILLER_23_86 vssd1 vssd1 vccd1 vccd1 sky130_fd_sc_hd__decap_4
XFILLER_23_42 vssd1 vssd1 vccd1 vccd1 sky130_ef_sc_hd__decap_12
X_131_ _255_/Q _209_/B vssd1 vssd1 vccd1 vccd1 _131_/Y sky130_fd_sc_hd__nor2_2
X_200_ _238_/Q vssd1 vssd1 vccd1 vccd1 _200_/Y sky130_fd_sc_hd__inv_2
XFILLER_0_68 vssd1 vssd1 vccd1 vccd1 sky130_fd_sc_hd__decap_8
XFILLER_0_57 vssd1 vssd1 vccd1 vccd1 sky130_fd_sc_hd__decap_4
XFILLER_18_97 vssd1 vssd1 vccd1 vccd1 sky130_ef_sc_hd__decap_12
XFILLER_18_64 vssd1 vssd1 vccd1 vccd1 sky130_fd_sc_hd__decap_4
XFILLER_18_53 vssd1 vssd1 vccd1 vccd1 sky130_fd_sc_hd__fill_1
X_114_ _238_/Q vssd1 vssd1 vccd1 vccd1 _238_/D sky130_fd_sc_hd__inv_2
XFILLER_19_150 vssd1 vssd1 vccd1 vccd1 sky130_fd_sc_hd__decap_4
XFILLER_13_3 vssd1 vssd1 vccd1 vccd1 sky130_fd_sc_hd__decap_4
XFILLER_16_131 vssd1 vssd1 vccd1 vccd1 sky130_fd_sc_hd__decap_4
Xoutput7 _169_/X vssd1 vssd1 vccd1 vccd1 io_out[3] sky130_fd_sc_hd__buf_4
XTAP_112 vssd1 vccd1 sky130_fd_sc_hd__tapvpwrvgnd_1
XTAP_101 vssd1 vccd1 sky130_fd_sc_hd__tapvpwrvgnd_1
XFILLER_7_8 vssd1 vssd1 vccd1 vccd1 sky130_fd_sc_hd__decap_4
XFILLER_3_57 vssd1 vssd1 vccd1 vccd1 sky130_fd_sc_hd__fill_2
XFILLER_12_77 vssd1 vssd1 vccd1 vccd1 sky130_fd_sc_hd__decap_6
XFILLER_23_54 vssd1 vssd1 vccd1 vccd1 sky130_fd_sc_hd__fill_2
X_130_ _256_/Q _209_/B vssd1 vssd1 vccd1 vccd1 _130_/Y sky130_fd_sc_hd__nor2_2
XFILLER_2_166 vssd1 vssd1 vccd1 vccd1 sky130_fd_sc_hd__fill_2
XFILLER_9_12 vssd1 vssd1 vccd1 vccd1 sky130_fd_sc_hd__decap_4
XFILLER_9_23 vssd1 vssd1 vccd1 vccd1 sky130_fd_sc_hd__decap_4
X_259_ _220_/Y _259_/D _129_/Y vssd1 vssd1 vccd1 vccd1 _259_/Q sky130_fd_sc_hd__dfrtp_2
X_113_ _237_/Q vssd1 vssd1 vccd1 vccd1 _237_/D sky130_fd_sc_hd__inv_2
XFILLER_20_11 vssd1 vssd1 vccd1 vccd1 sky130_fd_sc_hd__decap_3
XFILLER_15_55 vssd1 vssd1 vccd1 vccd1 sky130_fd_sc_hd__fill_1
X_186__16 _182_/B vssd1 vssd1 vccd1 vccd1 _186__16/Y sky130_fd_sc_hd__inv_2
Xoutput10 _172_/X vssd1 vssd1 vccd1 vccd1 io_out[6] sky130_fd_sc_hd__buf_4
Xoutput8 _170_/X vssd1 vssd1 vccd1 vccd1 io_out[4] sky130_fd_sc_hd__buf_4
XTAP_113 vssd1 vccd1 sky130_fd_sc_hd__tapvpwrvgnd_1
XFILLER_22_135 vssd1 vssd1 vccd1 vccd1 sky130_fd_sc_hd__decap_4
XTAP_102 vssd1 vccd1 sky130_fd_sc_hd__tapvpwrvgnd_1
XFILLER_13_113 vssd1 vssd1 vccd1 vccd1 sky130_fd_sc_hd__decap_3
XFILLER_13_102 vssd1 vssd1 vccd1 vccd1 sky130_fd_sc_hd__decap_8
XFILLER_10_138 vssd1 vssd1 vccd1 vccd1 sky130_fd_sc_hd__fill_2
XFILLER_12_56 vssd1 vssd1 vccd1 vccd1 sky130_fd_sc_hd__decap_4
XFILLER_0_37 vssd1 vssd1 vccd1 vccd1 sky130_fd_sc_hd__decap_8
XFILLER_3_3 vssd1 vssd1 vccd1 vccd1 sky130_ef_sc_hd__decap_12
X_258_ _219_/Y _258_/D _178_/Y vssd1 vssd1 vccd1 vccd1 _258_/Q sky130_fd_sc_hd__dfrtp_2
XFILLER_9_46 vssd1 vssd1 vccd1 vccd1 sky130_fd_sc_hd__decap_4
XFILLER_9_57 vssd1 vssd1 vccd1 vccd1 sky130_fd_sc_hd__decap_4
X_112_ _267_/Q vssd1 vssd1 vccd1 vccd1 _267_/D sky130_fd_sc_hd__inv_2
XFILLER_1_91 vssd1 vssd1 vccd1 vccd1 sky130_ef_sc_hd__decap_12
XFILLER_6_25 vssd1 vssd1 vccd1 vccd1 sky130_fd_sc_hd__decap_3
XFILLER_19_130 vssd1 vssd1 vccd1 vccd1 sky130_ef_sc_hd__decap_12
X_217__9 _126_/B vssd1 vssd1 vccd1 vccd1 _256_/CLK sky130_fd_sc_hd__inv_2
XFILLER_16_166 vssd1 vssd1 vccd1 vccd1 sky130_fd_sc_hd__fill_2
Xoutput11 _267_/Q vssd1 vssd1 vccd1 vccd1 io_out[7] sky130_fd_sc_hd__buf_4
Xoutput9 _171_/X vssd1 vssd1 vccd1 vccd1 io_out[5] sky130_fd_sc_hd__buf_4
XTAP_114 vssd1 vccd1 sky130_fd_sc_hd__tapvpwrvgnd_1
XTAP_103 vssd1 vccd1 sky130_fd_sc_hd__tapvpwrvgnd_1
XFILLER_13_158 vssd1 vssd1 vccd1 vccd1 sky130_fd_sc_hd__decap_4
XFILLER_9_107 vssd1 vssd1 vccd1 vccd1 sky130_fd_sc_hd__decap_4
XFILLER_9_118 vssd1 vssd1 vccd1 vccd1 sky130_ef_sc_hd__decap_12
XFILLER_3_15 vssd1 vssd1 vccd1 vccd1 sky130_fd_sc_hd__decap_4
XFILLER_5_7 vssd1 vssd1 vccd1 vccd1 sky130_fd_sc_hd__fill_1
XFILLER_5_110 vssd1 vssd1 vccd1 vccd1 sky130_fd_sc_hd__fill_2
XFILLER_23_23 vssd1 vssd1 vccd1 vccd1 sky130_fd_sc_hd__fill_2
XFILLER_2_124 vssd1 vssd1 vccd1 vccd1 sky130_fd_sc_hd__decap_4
X_257_ _218_/Y _257_/D _179_/Y vssd1 vssd1 vccd1 vccd1 _257_/Q sky130_fd_sc_hd__dfrtp_4
X_111_ _253_/Q vssd1 vssd1 vccd1 vccd1 _253_/D sky130_fd_sc_hd__inv_2
XFILLER_19_142 vssd1 vssd1 vccd1 vccd1 sky130_fd_sc_hd__decap_4
XFILLER_15_57 vssd1 vssd1 vccd1 vccd1 sky130_fd_sc_hd__fill_2
Xoutput12 _231_/Q vssd1 vssd1 vccd1 vccd1 io_out[8] sky130_fd_sc_hd__buf_4
XTAP_115 vssd1 vccd1 sky130_fd_sc_hd__tapvpwrvgnd_1
XTAP_104 vssd1 vccd1 sky130_fd_sc_hd__tapvpwrvgnd_1
XFILLER_11_3 vssd1 vssd1 vccd1 vccd1 sky130_ef_sc_hd__decap_12
X_191__21 _182_/B vssd1 vssd1 vccd1 vccd1 _191__21/Y sky130_fd_sc_hd__inv_2
XFILLER_8_130 vssd1 vssd1 vccd1 vccd1 sky130_fd_sc_hd__fill_1
XFILLER_8_141 vssd1 vssd1 vccd1 vccd1 sky130_fd_sc_hd__fill_2
X_195__4 _208__7/A vssd1 vssd1 vccd1 vccd1 _234_/CLK sky130_fd_sc_hd__inv_2
XFILLER_23_57 vssd1 vssd1 vccd1 vccd1 sky130_fd_sc_hd__fill_2
XFILLER_4_70 vssd1 vssd1 vccd1 vccd1 sky130_fd_sc_hd__decap_4
XFILLER_4_81 vssd1 vssd1 vccd1 vccd1 sky130_fd_sc_hd__decap_3
XFILLER_4_92 vssd1 vssd1 vccd1 vccd1 sky130_ef_sc_hd__decap_12
X_256_ _256_/CLK _256_/D vssd1 vssd1 vccd1 vccd1 _256_/Q sky130_fd_sc_hd__dfxtp_4
XFILLER_18_57 vssd1 vssd1 vccd1 vccd1 sky130_fd_sc_hd__decap_4
X_110_ _251_/Q vssd1 vssd1 vccd1 vccd1 _251_/D sky130_fd_sc_hd__inv_2
X_239_ _200_/Y _239_/D _190__20/Y vssd1 vssd1 vccd1 vccd1 _239_/Q sky130_fd_sc_hd__dfrtp_4
XFILLER_20_36 vssd1 vssd1 vccd1 vccd1 sky130_ef_sc_hd__decap_12
XFILLER_20_25 vssd1 vssd1 vccd1 vccd1 sky130_fd_sc_hd__decap_3
XFILLER_6_16 vssd1 vssd1 vccd1 vccd1 sky130_fd_sc_hd__decap_4
XFILLER_19_165 vssd1 vssd1 vccd1 vccd1 sky130_fd_sc_hd__decap_3
Xoutput13 _232_/Q vssd1 vssd1 vccd1 vccd1 io_out[9] sky130_fd_sc_hd__buf_4
XTAP_116 vssd1 vccd1 sky130_fd_sc_hd__tapvpwrvgnd_1
XTAP_105 vssd1 vccd1 sky130_fd_sc_hd__tapvpwrvgnd_1
XFILLER_21_160 vssd1 vssd1 vccd1 vccd1 sky130_fd_sc_hd__decap_8
X_173__11 _176_/B vssd1 vssd1 vccd1 vccd1 _173__11/Y sky130_fd_sc_hd__inv_2
XFILLER_8_164 vssd1 vssd1 vccd1 vccd1 sky130_fd_sc_hd__decap_4
XFILLER_12_26 vssd1 vssd1 vccd1 vccd1 sky130_fd_sc_hd__fill_2
XFILLER_12_37 vssd1 vssd1 vccd1 vccd1 sky130_fd_sc_hd__fill_1
XFILLER_5_167 vssd1 vssd1 vccd1 vccd1 sky130_fd_sc_hd__fill_1
XFILLER_2_104 vssd1 vssd1 vccd1 vccd1 sky130_fd_sc_hd__decap_4
X_255_ _255_/CLK _255_/D vssd1 vssd1 vccd1 vccd1 _255_/Q sky130_fd_sc_hd__dfxtp_2
XFILLER_2_137 vssd1 vssd1 vccd1 vccd1 sky130_fd_sc_hd__decap_3
XFILLER_0_29 vssd1 vssd1 vccd1 vccd1 sky130_fd_sc_hd__fill_2
XFILLER_2_159 vssd1 vssd1 vccd1 vccd1 sky130_fd_sc_hd__decap_4
XFILLER_1_3 vssd1 vssd1 vccd1 vccd1 sky130_fd_sc_hd__fill_2
X_238_ _199_/Y _238_/D _191__21/Y vssd1 vssd1 vccd1 vccd1 _238_/Q sky130_fd_sc_hd__dfrtp_4
X_169_ _164_/Y _166_/Y _168_/X _161_/Y vssd1 vssd1 vccd1 vccd1 _169_/X sky130_fd_sc_hd__o31a_1
XFILLER_20_59 vssd1 vssd1 vccd1 vccd1 sky130_fd_sc_hd__decap_4
XFILLER_20_48 vssd1 vssd1 vccd1 vccd1 sky130_fd_sc_hd__decap_8
XFILLER_10_92 vssd1 vssd1 vccd1 vccd1 sky130_fd_sc_hd__decap_8
XFILLER_15_15 vssd1 vssd1 vccd1 vccd1 sky130_ef_sc_hd__decap_12
XFILLER_16_125 vssd1 vssd1 vccd1 vccd1 sky130_fd_sc_hd__decap_3
XFILLER_22_139 vssd1 vssd1 vccd1 vccd1 sky130_fd_sc_hd__fill_1
XTAP_106 vssd1 vccd1 sky130_fd_sc_hd__tapvpwrvgnd_1
XPHY_0 vssd1 vssd1 vccd1 vccd1 sky130_fd_sc_hd__decap_3
XFILLER_7_93 vssd1 vssd1 vccd1 vccd1 sky130_ef_sc_hd__decap_12
XFILLER_5_113 vssd1 vssd1 vccd1 vccd1 sky130_ef_sc_hd__decap_12
XFILLER_23_15 vssd1 vssd1 vccd1 vccd1 sky130_fd_sc_hd__decap_8
X_254_ _215_/Y _254_/D _130_/Y vssd1 vssd1 vccd1 vccd1 _254_/Q sky130_fd_sc_hd__dfrtp_2
XFILLER_18_37 vssd1 vssd1 vccd1 vccd1 sky130_ef_sc_hd__decap_12
XFILLER_18_26 vssd1 vssd1 vccd1 vccd1 sky130_fd_sc_hd__fill_2
X_125__1 _208__7/A vssd1 vssd1 vccd1 vccd1 _231_/CLK sky130_fd_sc_hd__inv_2
X_099_ _249_/Q vssd1 vssd1 vccd1 vccd1 _249_/D sky130_fd_sc_hd__inv_2
X_237_ _198_/Y _237_/D _192__22/Y vssd1 vssd1 vccd1 vccd1 _237_/Q sky130_fd_sc_hd__dfrtp_4
X_168_ _156_/A _147_/Y _161_/B vssd1 vssd1 vccd1 vccd1 _168_/X sky130_fd_sc_hd__a21o_1
XFILLER_1_62 vssd1 vssd1 vccd1 vccd1 sky130_ef_sc_hd__decap_12
XFILLER_19_101 vssd1 vssd1 vccd1 vccd1 sky130_fd_sc_hd__decap_8
XFILLER_6_29 vssd1 vssd1 vccd1 vccd1 sky130_ef_sc_hd__decap_12
XFILLER_10_71 vssd1 vssd1 vccd1 vccd1 sky130_fd_sc_hd__fill_1
XFILLER_10_82 vssd1 vssd1 vccd1 vccd1 sky130_fd_sc_hd__fill_2
XFILLER_15_27 vssd1 vssd1 vccd1 vccd1 sky130_ef_sc_hd__decap_12
XTAP_107 vssd1 vccd1 sky130_fd_sc_hd__tapvpwrvgnd_1
XFILLER_21_92 vssd1 vssd1 vccd1 vccd1 sky130_fd_sc_hd__decap_6
XFILLER_21_70 vssd1 vssd1 vccd1 vccd1 sky130_fd_sc_hd__fill_1
XPHY_1 vssd1 vssd1 vccd1 vccd1 sky130_fd_sc_hd__decap_3
XFILLER_7_72 vssd1 vssd1 vccd1 vccd1 sky130_fd_sc_hd__fill_1
XFILLER_8_100 vssd1 vssd1 vccd1 vccd1 sky130_fd_sc_hd__decap_4
XFILLER_5_125 vssd1 vssd1 vccd1 vccd1 sky130_ef_sc_hd__decap_12
XFILLER_4_51 vssd1 vssd1 vccd1 vccd1 sky130_fd_sc_hd__decap_8
X_253_ _214_/Y _253_/D _180_/Y vssd1 vssd1 vccd1 vccd1 _253_/Q sky130_fd_sc_hd__dfrtp_2
XFILLER_18_49 vssd1 vssd1 vccd1 vccd1 sky130_fd_sc_hd__decap_4
XFILLER_24_81 vssd1 vssd1 vccd1 vccd1 sky130_fd_sc_hd__decap_3
X_098_ _252_/Q vssd1 vssd1 vccd1 vccd1 _252_/D sky130_fd_sc_hd__inv_2
X_236_ _126_/B _236_/D _197__23/Y vssd1 vssd1 vccd1 vccd1 _236_/Q sky130_fd_sc_hd__dfrtp_4
X_167_ _161_/B _166_/Y _161_/A vssd1 vssd1 vccd1 vccd1 _167_/Y sky130_fd_sc_hd__o21ai_1
XFILLER_20_17 vssd1 vssd1 vccd1 vccd1 sky130_fd_sc_hd__decap_8
XFILLER_1_74 vssd1 vssd1 vccd1 vccd1 sky130_ef_sc_hd__decap_12
XFILLER_1_30 vssd1 vssd1 vccd1 vccd1 sky130_fd_sc_hd__decap_4
XFILLER_19_113 vssd1 vssd1 vccd1 vccd1 sky130_fd_sc_hd__fill_2
X_189__19 _182_/B vssd1 vssd1 vccd1 vccd1 _189__19/Y sky130_fd_sc_hd__inv_2
XFILLER_19_157 vssd1 vssd1 vccd1 vccd1 sky130_fd_sc_hd__decap_8
XFILLER_19_146 vssd1 vssd1 vccd1 vccd1 sky130_fd_sc_hd__fill_1
XFILLER_19_70 vssd1 vssd1 vccd1 vccd1 sky130_fd_sc_hd__decap_4
X_219_ _259_/Q vssd1 vssd1 vccd1 vccd1 _219_/Y sky130_fd_sc_hd__inv_2
XFILLER_16_138 vssd1 vssd1 vccd1 vccd1 sky130_fd_sc_hd__fill_2
XFILLER_15_39 vssd1 vssd1 vccd1 vccd1 sky130_ef_sc_hd__decap_12
XTAP_108 vssd1 vccd1 sky130_fd_sc_hd__tapvpwrvgnd_1
XPHY_2 vssd1 vssd1 vccd1 vccd1 sky130_fd_sc_hd__decap_3
Xclkbuf_0_clk clk vssd1 vssd1 vccd1 vccd1 clkbuf_0_clk/X sky130_fd_sc_hd__clkbuf_16
XFILLER_13_119 vssd1 vssd1 vccd1 vccd1 sky130_ef_sc_hd__decap_12
XFILLER_16_93 vssd1 vssd1 vccd1 vccd1 sky130_fd_sc_hd__fill_1
XFILLER_12_141 vssd1 vssd1 vccd1 vccd1 sky130_fd_sc_hd__fill_2
XFILLER_8_134 vssd1 vssd1 vccd1 vccd1 sky130_fd_sc_hd__decap_6
XFILLER_12_29 vssd1 vssd1 vccd1 vccd1 sky130_fd_sc_hd__decap_8
XFILLER_5_137 vssd1 vssd1 vccd1 vccd1 sky130_ef_sc_hd__decap_12
XFILLER_4_63 vssd1 vssd1 vccd1 vccd1 sky130_fd_sc_hd__decap_4
XFILLER_4_85 vssd1 vssd1 vccd1 vccd1 sky130_fd_sc_hd__fill_2
X_252_ _213_/Y _252_/D _181_/Y vssd1 vssd1 vccd1 vccd1 _252_/Q sky130_fd_sc_hd__dfrtp_2
X_183_ _255_/Q _209_/B vssd1 vssd1 vccd1 vccd1 _183_/Y sky130_fd_sc_hd__nor2_2
X_235_ _235_/CLK _267_/Q vssd1 vssd1 vccd1 vccd1 _235_/Q sky130_fd_sc_hd__dfxtp_1
XFILLER_20_29 vssd1 vssd1 vccd1 vccd1 sky130_fd_sc_hd__fill_2
X_097_ _254_/Q vssd1 vssd1 vccd1 vccd1 _254_/D sky130_fd_sc_hd__inv_2
XFILLER_1_86 vssd1 vssd1 vccd1 vccd1 sky130_fd_sc_hd__fill_2
X_166_ _166_/A _166_/B vssd1 vssd1 vccd1 vccd1 _166_/Y sky130_fd_sc_hd__nor2_1
X_218_ _258_/Q vssd1 vssd1 vccd1 vccd1 _218_/Y sky130_fd_sc_hd__inv_2
X_149_ _264_/Q _265_/Q _266_/Q vssd1 vssd1 vccd1 vccd1 _149_/X sky130_fd_sc_hd__and3b_1
XTAP_109 vssd1 vccd1 sky130_fd_sc_hd__tapvpwrvgnd_1
XFILLER_16_117 vssd1 vssd1 vccd1 vccd1 sky130_fd_sc_hd__decap_8
XPHY_3 vssd1 vssd1 vccd1 vccd1 sky130_fd_sc_hd__decap_3
XFILLER_21_153 vssd1 vssd1 vccd1 vccd1 sky130_fd_sc_hd__decap_4
XFILLER_16_83 vssd1 vssd1 vccd1 vccd1 sky130_fd_sc_hd__fill_1
XFILLER_5_149 vssd1 vssd1 vccd1 vccd1 sky130_ef_sc_hd__decap_12
X_182_ _256_/Q _182_/B vssd1 vssd1 vccd1 vccd1 _182_/Y sky130_fd_sc_hd__nor2_2
X_251_ _212_/Y _251_/D _182_/Y vssd1 vssd1 vccd1 vccd1 _251_/Q sky130_fd_sc_hd__dfrtp_2
XFILLER_13_73 vssd1 vssd1 vccd1 vccd1 sky130_fd_sc_hd__fill_1
XFILLER_18_29 vssd1 vssd1 vccd1 vccd1 sky130_fd_sc_hd__decap_3
X_096_ _265_/Q vssd1 vssd1 vccd1 vccd1 _265_/D sky130_fd_sc_hd__inv_2
X_165_ _160_/B _164_/B _161_/Y vssd1 vssd1 vccd1 vccd1 _165_/X sky130_fd_sc_hd__o21a_1
X_234_ _234_/CLK _234_/D vssd1 vssd1 vccd1 vccd1 _234_/Q sky130_fd_sc_hd__dfxtp_1
X_148_ _156_/A _166_/A vssd1 vssd1 vccd1 vccd1 _161_/A sky130_fd_sc_hd__or2_2
XFILLER_10_85 vssd1 vssd1 vccd1 vccd1 sky130_fd_sc_hd__fill_2
Xclkbuf_2_1__f__068_ clkbuf_0__068_/X vssd1 vssd1 vccd1 vccd1 _209_/B sky130_fd_sc_hd__clkbuf_16
XPHY_4 vssd1 vssd1 vccd1 vccd1 sky130_fd_sc_hd__decap_3
XFILLER_7_53 vssd1 vssd1 vccd1 vccd1 sky130_fd_sc_hd__decap_3
XFILLER_21_110 vssd1 vssd1 vccd1 vccd1 sky130_fd_sc_hd__fill_2
XFILLER_12_121 vssd1 vssd1 vccd1 vccd1 sky130_ef_sc_hd__decap_12
XFILLER_4_43 vssd1 vssd1 vccd1 vccd1 sky130_fd_sc_hd__decap_4
X_181_ _256_/Q _209_/B vssd1 vssd1 vccd1 vccd1 _181_/Y sky130_fd_sc_hd__nor2_2
X_250_ _211_/Y _250_/D _131_/Y vssd1 vssd1 vccd1 vccd1 _250_/Q sky130_fd_sc_hd__dfrtp_2
XFILLER_1_131 vssd1 vssd1 vccd1 vccd1 sky130_fd_sc_hd__decap_4
XFILLER_1_55 vssd1 vssd1 vccd1 vccd1 sky130_fd_sc_hd__fill_1
XFILLER_1_11 vssd1 vssd1 vccd1 vccd1 sky130_ef_sc_hd__decap_12
X_164_ _164_/A _164_/B vssd1 vssd1 vccd1 vccd1 _164_/Y sky130_fd_sc_hd__nor2_1
X_233_ _233_/CLK _233_/D vssd1 vssd1 vccd1 vccd1 _233_/Q sky130_fd_sc_hd__dfxtp_1
X_095_ _266_/Q vssd1 vssd1 vccd1 vccd1 _266_/D sky130_fd_sc_hd__inv_2
XFILLER_10_42 vssd1 vssd1 vccd1 vccd1 sky130_fd_sc_hd__decap_3
XFILLER_10_75 vssd1 vssd1 vccd1 vccd1 sky130_fd_sc_hd__decap_4
XFILLER_18_3 vssd1 vssd1 vccd1 vccd1 sky130_fd_sc_hd__fill_2
X_147_ _166_/A vssd1 vssd1 vccd1 vccd1 _147_/Y sky130_fd_sc_hd__inv_2
XFILLER_24_141 vssd1 vssd1 vccd1 vccd1 sky130_fd_sc_hd__fill_2
XFILLER_15_163 vssd1 vssd1 vccd1 vccd1 sky130_fd_sc_hd__decap_4
XFILLER_15_152 vssd1 vssd1 vccd1 vccd1 sky130_fd_sc_hd__fill_1
XPHY_5 vssd1 vssd1 vccd1 vccd1 sky130_fd_sc_hd__decap_3
X_207__6 _208__7/A vssd1 vssd1 vccd1 vccd1 _246_/CLK sky130_fd_sc_hd__inv_2
XFILLER_16_85 vssd1 vssd1 vccd1 vccd1 sky130_fd_sc_hd__decap_8
XFILLER_16_41 vssd1 vssd1 vccd1 vccd1 sky130_ef_sc_hd__decap_12
XFILLER_12_166 vssd1 vssd1 vccd1 vccd1 sky130_fd_sc_hd__fill_2
XFILLER_12_133 vssd1 vssd1 vccd1 vccd1 sky130_fd_sc_hd__decap_6
XFILLER_8_104 vssd1 vssd1 vccd1 vccd1 sky130_fd_sc_hd__fill_1
XFILLER_8_126 vssd1 vssd1 vccd1 vccd1 sky130_fd_sc_hd__decap_4
X_180_ _256_/Q _209_/B vssd1 vssd1 vccd1 vccd1 _180_/Y sky130_fd_sc_hd__nor2_2
X_230__24 _176_/B vssd1 vssd1 vccd1 vccd1 _230__24/Y sky130_fd_sc_hd__inv_2
XFILLER_1_165 vssd1 vssd1 vccd1 vccd1 sky130_fd_sc_hd__decap_3
XFILLER_1_110 vssd1 vssd1 vccd1 vccd1 sky130_fd_sc_hd__fill_2
XFILLER_24_85 vssd1 vssd1 vccd1 vccd1 sky130_ef_sc_hd__decap_12
X_232_ _232_/CLK _232_/D vssd1 vssd1 vccd1 vccd1 _232_/Q sky130_fd_sc_hd__dfxtp_1
XFILLER_1_23 vssd1 vssd1 vccd1 vccd1 sky130_fd_sc_hd__fill_2
X_163_ _156_/A _166_/B _147_/Y vssd1 vssd1 vccd1 vccd1 _163_/Y sky130_fd_sc_hd__a21oi_1
X_197__23 _182_/B vssd1 vssd1 vccd1 vccd1 _197__23/Y sky130_fd_sc_hd__inv_2
XFILLER_10_65 vssd1 vssd1 vccd1 vccd1 sky130_fd_sc_hd__decap_6
X_215_ _253_/Q vssd1 vssd1 vccd1 vccd1 _215_/Y sky130_fd_sc_hd__inv_2
X_146_ _253_/Q _258_/Q _250_/Q _262_/Q _265_/Q _266_/Q vssd1 vssd1 vccd1 vccd1 _166_/A
+ sky130_fd_sc_hd__mux4_2
X_185__15 _182_/B vssd1 vssd1 vccd1 vccd1 _185__15/Y sky130_fd_sc_hd__inv_2
XFILLER_21_64 vssd1 vssd1 vccd1 vccd1 sky130_fd_sc_hd__decap_6
XPHY_6 vssd1 vssd1 vccd1 vccd1 sky130_fd_sc_hd__decap_3
XFILLER_7_33 vssd1 vssd1 vccd1 vccd1 sky130_ef_sc_hd__decap_12
X_129_ _246_/Q _209_/B vssd1 vssd1 vccd1 vccd1 _129_/Y sky130_fd_sc_hd__nor2_2
XFILLER_16_53 vssd1 vssd1 vccd1 vccd1 sky130_fd_sc_hd__decap_3
XFILLER_4_34 vssd1 vssd1 vccd1 vccd1 sky130_fd_sc_hd__decap_4
XFILLER_4_141 vssd1 vssd1 vccd1 vccd1 sky130_fd_sc_hd__fill_2
XFILLER_13_54 vssd1 vssd1 vccd1 vccd1 sky130_fd_sc_hd__fill_2
XFILLER_13_43 vssd1 vssd1 vccd1 vccd1 sky130_fd_sc_hd__decap_4
XFILLER_13_10 vssd1 vssd1 vccd1 vccd1 sky130_fd_sc_hd__decap_4
XFILLER_1_144 vssd1 vssd1 vccd1 vccd1 sky130_fd_sc_hd__decap_4
XFILLER_8_3 vssd1 vssd1 vccd1 vccd1 sky130_fd_sc_hd__decap_8
XFILLER_24_97 vssd1 vssd1 vccd1 vccd1 sky130_fd_sc_hd__decap_6
X_231_ _231_/CLK _231_/D vssd1 vssd1 vccd1 vccd1 _231_/Q sky130_fd_sc_hd__dfxtp_1
X_162_ _156_/A _166_/B _147_/Y vssd1 vssd1 vccd1 vccd1 _164_/B sky130_fd_sc_hd__a21o_1
XFILLER_1_57 vssd1 vssd1 vccd1 vccd1 sky130_fd_sc_hd__fill_2
Xinput1 rst vssd1 vssd1 vccd1 vccd1 _140_/A sky130_fd_sc_hd__clkbuf_2
XFILLER_19_118 vssd1 vssd1 vccd1 vccd1 sky130_ef_sc_hd__decap_12
XFILLER_19_53 vssd1 vssd1 vccd1 vccd1 sky130_fd_sc_hd__decap_3
XFILLER_19_20 vssd1 vssd1 vccd1 vccd1 sky130_fd_sc_hd__decap_4
XTAP_90 vssd1 vccd1 sky130_fd_sc_hd__tapvpwrvgnd_1
X_214_ _252_/Q vssd1 vssd1 vccd1 vccd1 _214_/Y sky130_fd_sc_hd__inv_2
X_145_ _252_/Q _249_/Q _259_/Q _263_/Q _266_/Q _265_/Q vssd1 vssd1 vccd1 vccd1 _156_/A
+ sky130_fd_sc_hd__mux4_2
XFILLER_24_154 vssd1 vssd1 vccd1 vccd1 sky130_ef_sc_hd__decap_12
XFILLER_21_98 vssd1 vssd1 vccd1 vccd1 sky130_fd_sc_hd__fill_1
XFILLER_21_54 vssd1 vssd1 vccd1 vccd1 sky130_fd_sc_hd__fill_2
XFILLER_15_110 vssd1 vssd1 vccd1 vccd1 sky130_fd_sc_hd__fill_2
XPHY_7 vssd1 vssd1 vccd1 vccd1 sky130_fd_sc_hd__decap_3
XFILLER_23_3 vssd1 vssd1 vccd1 vccd1 sky130_ef_sc_hd__decap_12
XFILLER_21_113 vssd1 vssd1 vccd1 vccd1 sky130_fd_sc_hd__decap_6
XFILLER_21_102 vssd1 vssd1 vccd1 vccd1 sky130_fd_sc_hd__decap_8
XFILLER_7_45 vssd1 vssd1 vccd1 vccd1 sky130_fd_sc_hd__decap_8
X_128_ _247_/Q _176_/B vssd1 vssd1 vccd1 vccd1 _128_/Y sky130_fd_sc_hd__nor2_2
XFILLER_12_146 vssd1 vssd1 vccd1 vccd1 sky130_ef_sc_hd__decap_12
XFILLER_4_120 vssd1 vssd1 vccd1 vccd1 sky130_ef_sc_hd__decap_12
XFILLER_13_77 vssd1 vssd1 vccd1 vccd1 sky130_fd_sc_hd__decap_4
XFILLER_24_54 vssd1 vssd1 vccd1 vccd1 sky130_fd_sc_hd__fill_2
X_161_ _161_/A _161_/B vssd1 vssd1 vccd1 vccd1 _161_/Y sky130_fd_sc_hd__nand2_2
XTAP_91 vssd1 vccd1 sky130_fd_sc_hd__tapvpwrvgnd_1
XFILLER_10_34 vssd1 vssd1 vccd1 vccd1 sky130_fd_sc_hd__decap_8
XTAP_80 vssd1 vccd1 sky130_fd_sc_hd__tapvpwrvgnd_1
X_213_ _251_/Q vssd1 vssd1 vccd1 vccd1 _213_/Y sky130_fd_sc_hd__inv_2
X_144_ _254_/Q _252_/Q _251_/D _253_/D vssd1 vssd1 vccd1 vccd1 _256_/D sky130_fd_sc_hd__and4_1
X_193__2 _208__7/A vssd1 vssd1 vccd1 vccd1 _232_/CLK sky130_fd_sc_hd__inv_2
XFILLER_18_141 vssd1 vssd1 vccd1 vccd1 sky130_ef_sc_hd__decap_12
XFILLER_24_166 vssd1 vssd1 vccd1 vccd1 sky130_fd_sc_hd__fill_2
XFILLER_24_111 vssd1 vssd1 vccd1 vccd1 sky130_fd_sc_hd__fill_1
XFILLER_21_33 vssd1 vssd1 vccd1 vccd1 sky130_ef_sc_hd__decap_12
XFILLER_21_11 vssd1 vssd1 vccd1 vccd1 sky130_fd_sc_hd__fill_1
XFILLER_16_3 vssd1 vssd1 vccd1 vccd1 sky130_ef_sc_hd__decap_12
XFILLER_15_144 vssd1 vssd1 vccd1 vccd1 sky130_fd_sc_hd__decap_8
XPHY_8 vssd1 vssd1 vccd1 vccd1 sky130_fd_sc_hd__decap_3
XFILLER_7_57 vssd1 vssd1 vccd1 vccd1 sky130_fd_sc_hd__fill_2
XFILLER_7_68 vssd1 vssd1 vccd1 vccd1 sky130_fd_sc_hd__decap_4
XFILLER_16_77 vssd1 vssd1 vccd1 vccd1 sky130_fd_sc_hd__decap_6
X_190__20 _182_/B vssd1 vssd1 vccd1 vccd1 _190__20/Y sky130_fd_sc_hd__inv_2
XFILLER_12_158 vssd1 vssd1 vccd1 vccd1 sky130_fd_sc_hd__decap_8
XFILLER_7_162 vssd1 vssd1 vccd1 vccd1 sky130_fd_sc_hd__decap_6
XFILLER_4_132 vssd1 vssd1 vccd1 vccd1 sky130_fd_sc_hd__decap_3
XFILLER_13_67 vssd1 vssd1 vccd1 vccd1 sky130_fd_sc_hd__decap_6
XFILLER_1_157 vssd1 vssd1 vccd1 vccd1 sky130_fd_sc_hd__decap_8
XFILLER_1_113 vssd1 vssd1 vccd1 vccd1 sky130_fd_sc_hd__fill_2
X_160_ _161_/A _160_/B vssd1 vssd1 vccd1 vccd1 _160_/X sky130_fd_sc_hd__xor2_1
XTAP_92 vssd1 vccd1 sky130_fd_sc_hd__tapvpwrvgnd_1
XTAP_70 vssd1 vccd1 sky130_fd_sc_hd__tapvpwrvgnd_1
XTAP_81 vssd1 vccd1 sky130_fd_sc_hd__tapvpwrvgnd_1
X_212_ _241_/Q vssd1 vssd1 vccd1 vccd1 _212_/Y sky130_fd_sc_hd__inv_2
XFILLER_19_109 vssd1 vssd1 vccd1 vccd1 sky130_fd_sc_hd__decap_3
XFILLER_19_77 vssd1 vssd1 vccd1 vccd1 sky130_ef_sc_hd__decap_12
X_143_ _249_/Q _250_/Q _248_/D vssd1 vssd1 vccd1 vccd1 _255_/D sky130_fd_sc_hd__and3_1
XFILLER_18_153 vssd1 vssd1 vccd1 vccd1 sky130_ef_sc_hd__decap_12
XFILLER_21_45 vssd1 vssd1 vccd1 vccd1 sky130_fd_sc_hd__decap_6
X_126_ _140_/A _126_/B vssd1 vssd1 vccd1 vccd1 _126_/X sky130_fd_sc_hd__and2_2
XFILLER_15_167 vssd1 vssd1 vccd1 vccd1 sky130_fd_sc_hd__fill_1
XFILLER_15_156 vssd1 vssd1 vccd1 vccd1 sky130_fd_sc_hd__decap_4
XPHY_9 vssd1 vssd1 vccd1 vccd1 sky130_fd_sc_hd__decap_3
XFILLER_21_126 vssd1 vssd1 vccd1 vccd1 sky130_fd_sc_hd__decap_4
X_109_ _248_/Q vssd1 vssd1 vccd1 vccd1 _248_/D sky130_fd_sc_hd__inv_2
XFILLER_4_15 vssd1 vssd1 vccd1 vccd1 sky130_ef_sc_hd__decap_12
XFILLER_4_59 vssd1 vssd1 vccd1 vccd1 sky130_fd_sc_hd__fill_1
XFILLER_4_166 vssd1 vssd1 vccd1 vccd1 sky130_fd_sc_hd__fill_2
XFILLER_13_57 vssd1 vssd1 vccd1 vccd1 sky130_fd_sc_hd__decap_3
XFILLER_13_35 vssd1 vssd1 vccd1 vccd1 sky130_fd_sc_hd__decap_4
XFILLER_1_103 vssd1 vssd1 vccd1 vccd1 sky130_fd_sc_hd__decap_4
X_127__10 _176_/B vssd1 vssd1 vccd1 vccd1 _127__10/Y sky130_fd_sc_hd__inv_2
XFILLER_24_34 vssd1 vssd1 vccd1 vccd1 sky130_ef_sc_hd__decap_12
XFILLER_1_49 vssd1 vssd1 vccd1 vccd1 sky130_fd_sc_hd__decap_6
XFILLER_6_3 vssd1 vssd1 vccd1 vccd1 sky130_fd_sc_hd__decap_8
XTAP_93 vssd1 vccd1 sky130_fd_sc_hd__tapvpwrvgnd_1
XTAP_60 vssd1 vccd1 sky130_fd_sc_hd__tapvpwrvgnd_1
XTAP_71 vssd1 vccd1 sky130_fd_sc_hd__tapvpwrvgnd_1
XTAP_82 vssd1 vccd1 sky130_fd_sc_hd__tapvpwrvgnd_1
XFILLER_19_89 vssd1 vssd1 vccd1 vccd1 sky130_ef_sc_hd__decap_12
XFILLER_19_45 vssd1 vssd1 vccd1 vccd1 sky130_fd_sc_hd__decap_8
X_211_ _249_/Q vssd1 vssd1 vccd1 vccd1 _211_/Y sky130_fd_sc_hd__inv_2
X_142_ _261_/Q _263_/Q _264_/D _262_/D vssd1 vssd1 vccd1 vccd1 _247_/D sky130_fd_sc_hd__and4_1
XFILLER_18_165 vssd1 vssd1 vccd1 vccd1 sky130_fd_sc_hd__decap_3
XFILLER_18_121 vssd1 vssd1 vccd1 vccd1 sky130_ef_sc_hd__decap_12
XFILLER_24_113 vssd1 vssd1 vccd1 vccd1 sky130_ef_sc_hd__decap_12
XFILLER_21_57 vssd1 vssd1 vccd1 vccd1 sky130_fd_sc_hd__fill_2
XFILLER_15_113 vssd1 vssd1 vccd1 vccd1 sky130_fd_sc_hd__decap_8
XFILLER_21_3 vssd1 vssd1 vccd1 vccd1 sky130_fd_sc_hd__decap_8
X_108_ _262_/Q vssd1 vssd1 vccd1 vccd1 _262_/D sky130_fd_sc_hd__inv_2
XFILLER_4_27 vssd1 vssd1 vccd1 vccd1 sky130_fd_sc_hd__fill_1
XFILLER_4_112 vssd1 vssd1 vccd1 vccd1 sky130_fd_sc_hd__decap_3
XFILLER_24_57 vssd1 vssd1 vccd1 vccd1 sky130_ef_sc_hd__decap_12
XFILLER_24_46 vssd1 vssd1 vccd1 vccd1 sky130_fd_sc_hd__decap_8
XFILLER_1_39 vssd1 vssd1 vccd1 vccd1 sky130_fd_sc_hd__decap_4
XFILLER_19_57 vssd1 vssd1 vccd1 vccd1 sky130_fd_sc_hd__decap_6
XFILLER_19_13 vssd1 vssd1 vccd1 vccd1 sky130_fd_sc_hd__decap_4
XTAP_94 vssd1 vccd1 sky130_fd_sc_hd__tapvpwrvgnd_1
XTAP_83 vssd1 vccd1 sky130_fd_sc_hd__tapvpwrvgnd_1
XTAP_50 vssd1 vccd1 sky130_fd_sc_hd__tapvpwrvgnd_1
XTAP_61 vssd1 vccd1 sky130_fd_sc_hd__tapvpwrvgnd_1
XTAP_72 vssd1 vccd1 sky130_fd_sc_hd__tapvpwrvgnd_1
XFILLER_10_15 vssd1 vssd1 vccd1 vccd1 sky130_ef_sc_hd__decap_12
XFILLER_18_133 vssd1 vssd1 vccd1 vccd1 sky130_fd_sc_hd__decap_6
X_210_ _248_/Q vssd1 vssd1 vccd1 vccd1 _210_/Y sky130_fd_sc_hd__inv_2
X_141_ _257_/Q _259_/Q _260_/D _258_/D vssd1 vssd1 vccd1 vccd1 _246_/D sky130_fd_sc_hd__and4_1
XFILLER_24_147 vssd1 vssd1 vccd1 vccd1 sky130_fd_sc_hd__decap_4
XFILLER_24_125 vssd1 vssd1 vccd1 vccd1 sky130_ef_sc_hd__decap_12
XFILLER_24_103 vssd1 vssd1 vccd1 vccd1 sky130_fd_sc_hd__fill_1
X_124_ _269_/Q vssd1 vssd1 vccd1 vccd1 _269_/D sky130_fd_sc_hd__inv_2
XFILLER_12_139 vssd1 vssd1 vccd1 vccd1 sky130_fd_sc_hd__fill_1
XFILLER_14_3 vssd1 vssd1 vccd1 vccd1 sky130_fd_sc_hd__decap_8
X_107_ _264_/Q vssd1 vssd1 vccd1 vccd1 _264_/D sky130_fd_sc_hd__inv_2
XFILLER_4_157 vssd1 vssd1 vccd1 vccd1 sky130_fd_sc_hd__decap_3
X_196__5 _208__7/A vssd1 vssd1 vccd1 vccd1 _235_/CLK sky130_fd_sc_hd__inv_2
XFILLER_24_69 vssd1 vssd1 vccd1 vccd1 sky130_ef_sc_hd__decap_12
XTAP_95 vssd1 vccd1 sky130_fd_sc_hd__tapvpwrvgnd_1
XTAP_84 vssd1 vccd1 sky130_fd_sc_hd__tapvpwrvgnd_1
XTAP_51 vssd1 vccd1 sky130_fd_sc_hd__tapvpwrvgnd_1
XTAP_62 vssd1 vccd1 sky130_fd_sc_hd__tapvpwrvgnd_1
XTAP_73 vssd1 vccd1 sky130_fd_sc_hd__tapvpwrvgnd_1
XFILLER_10_27 vssd1 vssd1 vccd1 vccd1 sky130_fd_sc_hd__fill_1