* NGSPICE file created from tune_player.ext - technology: sky130B

* Black-box entry subcircuit for sky130_fd_sc_hd__tapvpwrvgnd_1 abstract view
.subckt sky130_fd_sc_hd__tapvpwrvgnd_1 VGND VPWR
.ends

* Black-box entry subcircuit for sky130_ef_sc_hd__decap_12 abstract view
.subckt sky130_ef_sc_hd__decap_12 VGND VNB VPB VPWR
.ends

* Black-box entry subcircuit for sky130_fd_sc_hd__a21oi_1 abstract view
.subckt sky130_fd_sc_hd__a21oi_1 A1 A2 B1 VGND VNB VPB VPWR Y
.ends

* Black-box entry subcircuit for sky130_fd_sc_hd__o22a_1 abstract view
.subckt sky130_fd_sc_hd__o22a_1 A1 A2 B1 B2 VGND VNB VPB VPWR X
.ends

* Black-box entry subcircuit for sky130_fd_sc_hd__fill_2 abstract view
.subckt sky130_fd_sc_hd__fill_2 VGND VNB VPB VPWR
.ends

* Black-box entry subcircuit for sky130_fd_sc_hd__decap_4 abstract view
.subckt sky130_fd_sc_hd__decap_4 VGND VNB VPB VPWR
.ends

* Black-box entry subcircuit for sky130_fd_sc_hd__o221a_1 abstract view
.subckt sky130_fd_sc_hd__o221a_1 A1 A2 B1 B2 C1 VGND VNB VPB VPWR X
.ends

* Black-box entry subcircuit for sky130_fd_sc_hd__decap_8 abstract view
.subckt sky130_fd_sc_hd__decap_8 VGND VNB VPB VPWR
.ends

* Black-box entry subcircuit for sky130_fd_sc_hd__decap_6 abstract view
.subckt sky130_fd_sc_hd__decap_6 VGND VNB VPB VPWR
.ends

* Black-box entry subcircuit for sky130_fd_sc_hd__nor2_1 abstract view
.subckt sky130_fd_sc_hd__nor2_1 A B VGND VNB VPB VPWR Y
.ends

* Black-box entry subcircuit for sky130_fd_sc_hd__fill_1 abstract view
.subckt sky130_fd_sc_hd__fill_1 VGND VNB VPB VPWR
.ends

* Black-box entry subcircuit for sky130_fd_sc_hd__a2bb2o_1 abstract view
.subckt sky130_fd_sc_hd__a2bb2o_1 A1_N A2_N B1 B2 VGND VNB VPB VPWR X
.ends

* Black-box entry subcircuit for sky130_fd_sc_hd__decap_3 abstract view
.subckt sky130_fd_sc_hd__decap_3 VGND VNB VPB VPWR
.ends

* Black-box entry subcircuit for sky130_fd_sc_hd__or4_2 abstract view
.subckt sky130_fd_sc_hd__or4_2 A B C D VGND VNB VPB VPWR X
.ends

* Black-box entry subcircuit for sky130_fd_sc_hd__o21ai_1 abstract view
.subckt sky130_fd_sc_hd__o21ai_1 A1 A2 B1 VGND VNB VPB VPWR Y
.ends

* Black-box entry subcircuit for sky130_fd_sc_hd__or2b_1 abstract view
.subckt sky130_fd_sc_hd__or2b_1 A B_N VGND VNB VPB VPWR X
.ends

* Black-box entry subcircuit for sky130_fd_sc_hd__clkbuf_1 abstract view
.subckt sky130_fd_sc_hd__clkbuf_1 A VGND VNB VPB VPWR X
.ends

* Black-box entry subcircuit for sky130_fd_sc_hd__and2_1 abstract view
.subckt sky130_fd_sc_hd__and2_1 A B VGND VNB VPB VPWR X
.ends

* Black-box entry subcircuit for sky130_fd_sc_hd__and3_1 abstract view
.subckt sky130_fd_sc_hd__and3_1 A B C VGND VNB VPB VPWR X
.ends

* Black-box entry subcircuit for sky130_fd_sc_hd__or3_1 abstract view
.subckt sky130_fd_sc_hd__or3_1 A B C VGND VNB VPB VPWR X
.ends

* Black-box entry subcircuit for sky130_fd_sc_hd__inv_2 abstract view
.subckt sky130_fd_sc_hd__inv_2 A VGND VNB VPB VPWR Y
.ends

* Black-box entry subcircuit for sky130_fd_sc_hd__mux2_1 abstract view
.subckt sky130_fd_sc_hd__mux2_1 A0 A1 S VGND VNB VPB VPWR X
.ends

* Black-box entry subcircuit for sky130_fd_sc_hd__o21a_1 abstract view
.subckt sky130_fd_sc_hd__o21a_1 A1 A2 B1 VGND VNB VPB VPWR X
.ends

* Black-box entry subcircuit for sky130_fd_sc_hd__or2_2 abstract view
.subckt sky130_fd_sc_hd__or2_2 A B VGND VNB VPB VPWR X
.ends

* Black-box entry subcircuit for sky130_fd_sc_hd__a211o_1 abstract view
.subckt sky130_fd_sc_hd__a211o_1 A1 A2 B1 C1 VGND VNB VPB VPWR X
.ends

* Black-box entry subcircuit for sky130_fd_sc_hd__o31ai_4 abstract view
.subckt sky130_fd_sc_hd__o31ai_4 A1 A2 A3 B1 VGND VNB VPB VPWR Y
.ends

* Black-box entry subcircuit for sky130_fd_sc_hd__a32o_1 abstract view
.subckt sky130_fd_sc_hd__a32o_1 A1 A2 A3 B1 B2 VGND VNB VPB VPWR X
.ends

* Black-box entry subcircuit for sky130_fd_sc_hd__xnor2_1 abstract view
.subckt sky130_fd_sc_hd__xnor2_1 A B VGND VNB VPB VPWR Y
.ends

* Black-box entry subcircuit for sky130_fd_sc_hd__a2111o_1 abstract view
.subckt sky130_fd_sc_hd__a2111o_1 A1 A2 B1 C1 D1 VGND VNB VPB VPWR X
.ends

* Black-box entry subcircuit for sky130_fd_sc_hd__or2_1 abstract view
.subckt sky130_fd_sc_hd__or2_1 A B VGND VNB VPB VPWR X
.ends

* Black-box entry subcircuit for sky130_fd_sc_hd__o31ai_1 abstract view
.subckt sky130_fd_sc_hd__o31ai_1 A1 A2 A3 B1 VGND VNB VPB VPWR Y
.ends

* Black-box entry subcircuit for sky130_fd_sc_hd__a21o_1 abstract view
.subckt sky130_fd_sc_hd__a21o_1 A1 A2 B1 VGND VNB VPB VPWR X
.ends

* Black-box entry subcircuit for sky130_fd_sc_hd__buf_2 abstract view
.subckt sky130_fd_sc_hd__buf_2 A VGND VNB VPB VPWR X
.ends

* Black-box entry subcircuit for sky130_fd_sc_hd__diode_2 abstract view
.subckt sky130_fd_sc_hd__diode_2 DIODE VGND VNB VPB VPWR
.ends

* Black-box entry subcircuit for sky130_fd_sc_hd__nand2_1 abstract view
.subckt sky130_fd_sc_hd__nand2_1 A B VGND VNB VPB VPWR Y
.ends

* Black-box entry subcircuit for sky130_fd_sc_hd__clkinv_2 abstract view
.subckt sky130_fd_sc_hd__clkinv_2 A VGND VNB VPB VPWR Y
.ends

* Black-box entry subcircuit for sky130_fd_sc_hd__dfxtp_1 abstract view
.subckt sky130_fd_sc_hd__dfxtp_1 CLK D VGND VNB VPB VPWR Q
.ends

* Black-box entry subcircuit for sky130_fd_sc_hd__or3b_1 abstract view
.subckt sky130_fd_sc_hd__or3b_1 A B C_N VGND VNB VPB VPWR X
.ends

* Black-box entry subcircuit for sky130_fd_sc_hd__a31o_1 abstract view
.subckt sky130_fd_sc_hd__a31o_1 A1 A2 A3 B1 VGND VNB VPB VPWR X
.ends

* Black-box entry subcircuit for sky130_fd_sc_hd__o2bb2a_1 abstract view
.subckt sky130_fd_sc_hd__o2bb2a_1 A1_N A2_N B1 B2 VGND VNB VPB VPWR X
.ends

* Black-box entry subcircuit for sky130_fd_sc_hd__and4bb_1 abstract view
.subckt sky130_fd_sc_hd__and4bb_1 A_N B_N C D VGND VNB VPB VPWR X
.ends

* Black-box entry subcircuit for sky130_fd_sc_hd__a221o_1 abstract view
.subckt sky130_fd_sc_hd__a221o_1 A1 A2 B1 B2 C1 VGND VNB VPB VPWR X
.ends

* Black-box entry subcircuit for sky130_fd_sc_hd__clkbuf_16 abstract view
.subckt sky130_fd_sc_hd__clkbuf_16 A VGND VNB VPB VPWR X
.ends

* Black-box entry subcircuit for sky130_fd_sc_hd__a22o_1 abstract view
.subckt sky130_fd_sc_hd__a22o_1 A1 A2 B1 B2 VGND VNB VPB VPWR X
.ends

* Black-box entry subcircuit for sky130_fd_sc_hd__and4_1 abstract view
.subckt sky130_fd_sc_hd__and4_1 A B C D VGND VNB VPB VPWR X
.ends

* Black-box entry subcircuit for sky130_fd_sc_hd__o41a_1 abstract view
.subckt sky130_fd_sc_hd__o41a_1 A1 A2 A3 A4 B1 VGND VNB VPB VPWR X
.ends

* Black-box entry subcircuit for sky130_fd_sc_hd__o2111a_2 abstract view
.subckt sky130_fd_sc_hd__o2111a_2 A1 A2 B1 C1 D1 VGND VNB VPB VPWR X
.ends

* Black-box entry subcircuit for sky130_fd_sc_hd__or4b_1 abstract view
.subckt sky130_fd_sc_hd__or4b_1 A B C D_N VGND VNB VPB VPWR X
.ends

* Black-box entry subcircuit for sky130_fd_sc_hd__dfxtp_2 abstract view
.subckt sky130_fd_sc_hd__dfxtp_2 CLK D VGND VNB VPB VPWR Q
.ends

* Black-box entry subcircuit for sky130_fd_sc_hd__o211a_1 abstract view
.subckt sky130_fd_sc_hd__o211a_1 A1 A2 B1 C1 VGND VNB VPB VPWR X
.ends

* Black-box entry subcircuit for sky130_fd_sc_hd__a21bo_1 abstract view
.subckt sky130_fd_sc_hd__a21bo_1 A1 A2 B1_N VGND VNB VPB VPWR X
.ends

* Black-box entry subcircuit for sky130_fd_sc_hd__o21ba_1 abstract view
.subckt sky130_fd_sc_hd__o21ba_1 A1 A2 B1_N VGND VNB VPB VPWR X
.ends

* Black-box entry subcircuit for sky130_fd_sc_hd__nor3_1 abstract view
.subckt sky130_fd_sc_hd__nor3_1 A B C VGND VNB VPB VPWR Y
.ends

* Black-box entry subcircuit for sky130_fd_sc_hd__o2111a_1 abstract view
.subckt sky130_fd_sc_hd__o2111a_1 A1 A2 B1 C1 D1 VGND VNB VPB VPWR X
.ends

* Black-box entry subcircuit for sky130_fd_sc_hd__nor2_2 abstract view
.subckt sky130_fd_sc_hd__nor2_2 A B VGND VNB VPB VPWR Y
.ends

* Black-box entry subcircuit for sky130_fd_sc_hd__a311o_1 abstract view
.subckt sky130_fd_sc_hd__a311o_1 A1 A2 A3 B1 C1 VGND VNB VPB VPWR X
.ends

* Black-box entry subcircuit for sky130_fd_sc_hd__clkbuf_4 abstract view
.subckt sky130_fd_sc_hd__clkbuf_4 A VGND VNB VPB VPWR X
.ends

* Black-box entry subcircuit for sky130_fd_sc_hd__o311a_1 abstract view
.subckt sky130_fd_sc_hd__o311a_1 A1 A2 A3 B1 C1 VGND VNB VPB VPWR X
.ends

* Black-box entry subcircuit for sky130_fd_sc_hd__nand3b_1 abstract view
.subckt sky130_fd_sc_hd__nand3b_1 A_N B C VGND VNB VPB VPWR Y
.ends

* Black-box entry subcircuit for sky130_fd_sc_hd__nor3b_4 abstract view
.subckt sky130_fd_sc_hd__nor3b_4 A B C_N VGND VNB VPB VPWR Y
.ends

* Black-box entry subcircuit for sky130_fd_sc_hd__and2b_1 abstract view
.subckt sky130_fd_sc_hd__and2b_1 A_N B VGND VNB VPB VPWR X
.ends

* Black-box entry subcircuit for sky130_fd_sc_hd__o31a_1 abstract view
.subckt sky130_fd_sc_hd__o31a_1 A1 A2 A3 B1 VGND VNB VPB VPWR X
.ends

* Black-box entry subcircuit for sky130_fd_sc_hd__and3b_1 abstract view
.subckt sky130_fd_sc_hd__and3b_1 A_N B C VGND VNB VPB VPWR X
.ends

* Black-box entry subcircuit for sky130_fd_sc_hd__clkbuf_2 abstract view
.subckt sky130_fd_sc_hd__clkbuf_2 A VGND VNB VPB VPWR X
.ends

* Black-box entry subcircuit for sky130_fd_sc_hd__a41o_1 abstract view
.subckt sky130_fd_sc_hd__a41o_1 A1 A2 A3 A4 B1 VGND VNB VPB VPWR X
.ends

* Black-box entry subcircuit for sky130_fd_sc_hd__xor2_1 abstract view
.subckt sky130_fd_sc_hd__xor2_1 A B VGND VNB VPB VPWR X
.ends

* Black-box entry subcircuit for sky130_fd_sc_hd__nand4_1 abstract view
.subckt sky130_fd_sc_hd__nand4_1 A B C D VGND VNB VPB VPWR Y
.ends

* Black-box entry subcircuit for sky130_fd_sc_hd__nand3_1 abstract view
.subckt sky130_fd_sc_hd__nand3_1 A B C VGND VNB VPB VPWR Y
.ends

* Black-box entry subcircuit for sky130_fd_sc_hd__o211ai_1 abstract view
.subckt sky130_fd_sc_hd__o211ai_1 A1 A2 B1 C1 VGND VNB VPB VPWR Y
.ends

.subckt tune_player OP clk rst vccd1 vssd1
XTAP_199 vssd1 vccd1 sky130_fd_sc_hd__tapvpwrvgnd_1
XTAP_188 vssd1 vccd1 sky130_fd_sc_hd__tapvpwrvgnd_1
XTAP_177 vssd1 vccd1 sky130_fd_sc_hd__tapvpwrvgnd_1
XFILLER_22_177 vssd1 vssd1 vccd1 vccd1 sky130_ef_sc_hd__decap_12
XFILLER_22_122 vssd1 vssd1 vccd1 vccd1 sky130_ef_sc_hd__decap_12
XFILLER_26_85 vssd1 vssd1 vccd1 vccd1 sky130_ef_sc_hd__decap_12
XFILLER_26_41 vssd1 vssd1 vccd1 vccd1 sky130_ef_sc_hd__decap_12
X_363_ OP_reg _143_ _145_ vssd1 vssd1 vccd1 vccd1 _017_ sky130_fd_sc_hd__a21oi_1
X_432_ tempo_LFSR\[0\] _195_ _196_ tempo_LFSR\[1\] vssd1 vssd1 vccd1 vccd1 _035_ sky130_fd_sc_hd__o22a_1
XFILLER_13_177 vssd1 vssd1 vccd1 vccd1 sky130_ef_sc_hd__decap_12
XFILLER_13_166 vssd1 vssd1 vccd1 vccd1 sky130_fd_sc_hd__fill_2
XFILLER_3_89 vssd1 vssd1 vccd1 vccd1 sky130_fd_sc_hd__decap_4
X_294_ _013_ _084_ _086_ _087_ _044_ vssd1 vssd1 vccd1 vccd1 _088_ sky130_fd_sc_hd__o221a_1
XFILLER_27_225 vssd1 vssd1 vccd1 vccd1 sky130_fd_sc_hd__decap_8
XFILLER_8_192 vssd1 vssd1 vccd1 vccd1 sky130_fd_sc_hd__decap_4
XFILLER_33_217 vssd1 vssd1 vccd1 vccd1 sky130_fd_sc_hd__decap_6
X_346_ just_rst _045_ vssd1 vssd1 vccd1 vccd1 _132_ sky130_fd_sc_hd__nor2_1
XFILLER_12_65 vssd1 vssd1 vccd1 vccd1 sky130_fd_sc_hd__fill_1
XFILLER_10_147 vssd1 vssd1 vccd1 vccd1 sky130_fd_sc_hd__decap_6
XFILLER_10_125 vssd1 vssd1 vccd1 vccd1 sky130_fd_sc_hd__decap_4
XFILLER_10_114 vssd1 vssd1 vccd1 vccd1 sky130_fd_sc_hd__decap_8
X_415_ clock_div\[0\] clock_div\[1\] clock_div\[2\] vssd1 vssd1 vccd1 vccd1 _187_
+ sky130_fd_sc_hd__a21oi_1
X_277_ _070_ _072_ vssd1 vssd1 vccd1 vccd1 _073_ sky130_fd_sc_hd__nor2_1
XFILLER_5_140 vssd1 vssd1 vccd1 vccd1 sky130_fd_sc_hd__fill_1
XFILLER_5_173 vssd1 vssd1 vccd1 vccd1 sky130_fd_sc_hd__decap_4
XFILLER_30_209 vssd1 vssd1 vccd1 vccd1 sky130_ef_sc_hd__decap_12
XFILLER_15_217 vssd1 vssd1 vccd1 vccd1 sky130_fd_sc_hd__decap_6
XFILLER_9_55 vssd1 vssd1 vccd1 vccd1 sky130_fd_sc_hd__fill_1
XFILLER_0_79 vssd1 vssd1 vccd1 vccd1 sky130_fd_sc_hd__decap_4
XFILLER_0_57 vssd1 vssd1 vccd1 vccd1 sky130_fd_sc_hd__decap_8
XFILLER_0_24 vssd1 vssd1 vccd1 vccd1 sky130_fd_sc_hd__decap_4
X_329_ PC\[4\] _116_ _044_ _056_ vssd1 vssd1 vccd1 vccd1 _119_ sky130_fd_sc_hd__a2bb2o_1
XFILLER_34_85 vssd1 vssd1 vccd1 vccd1 sky130_ef_sc_hd__decap_12
XFILLER_34_41 vssd1 vssd1 vccd1 vccd1 sky130_ef_sc_hd__decap_12
XFILLER_35_109 vssd1 vssd1 vccd1 vccd1 sky130_fd_sc_hd__decap_3
XFILLER_20_54 vssd1 vssd1 vccd1 vccd1 sky130_fd_sc_hd__fill_1
XFILLER_34_197 vssd1 vssd1 vccd1 vccd1 sky130_ef_sc_hd__decap_12
XFILLER_34_153 vssd1 vssd1 vccd1 vccd1 sky130_ef_sc_hd__decap_12
XFILLER_26_109 vssd1 vssd1 vccd1 vccd1 sky130_ef_sc_hd__decap_12
XFILLER_13_3 vssd1 vssd1 vccd1 vccd1 sky130_fd_sc_hd__fill_2
XFILLER_15_21 vssd1 vssd1 vccd1 vccd1 sky130_fd_sc_hd__decap_4
XFILLER_31_167 vssd1 vssd1 vccd1 vccd1 sky130_fd_sc_hd__fill_1
XFILLER_16_197 vssd1 vssd1 vccd1 vccd1 sky130_ef_sc_hd__decap_12
XFILLER_16_131 vssd1 vssd1 vccd1 vccd1 sky130_fd_sc_hd__decap_8
XTAP_189 vssd1 vccd1 sky130_fd_sc_hd__tapvpwrvgnd_1
XTAP_178 vssd1 vccd1 sky130_fd_sc_hd__tapvpwrvgnd_1
XTAP_167 vssd1 vccd1 sky130_fd_sc_hd__tapvpwrvgnd_1
XFILLER_22_189 vssd1 vssd1 vccd1 vccd1 sky130_fd_sc_hd__decap_6
XFILLER_22_134 vssd1 vssd1 vccd1 vccd1 sky130_fd_sc_hd__decap_6
XTAP_156 vssd1 vccd1 sky130_fd_sc_hd__tapvpwrvgnd_1
XTAP_145 vssd1 vccd1 sky130_fd_sc_hd__tapvpwrvgnd_1
XTAP_134 vssd1 vccd1 sky130_fd_sc_hd__tapvpwrvgnd_1
XTAP_123 vssd1 vccd1 sky130_fd_sc_hd__tapvpwrvgnd_1
XTAP_112 vssd1 vccd1 sky130_fd_sc_hd__tapvpwrvgnd_1
XTAP_101 vssd1 vccd1 sky130_fd_sc_hd__tapvpwrvgnd_1
XFILLER_26_97 vssd1 vssd1 vccd1 vccd1 sky130_ef_sc_hd__decap_12
XFILLER_26_53 vssd1 vssd1 vccd1 vccd1 sky130_ef_sc_hd__decap_12
X_431_ _041_ _125_ _132_ _215_ vssd1 vssd1 vccd1 vccd1 _196_ sky130_fd_sc_hd__or4_2
X_362_ OP_reg _143_ _144_ vssd1 vssd1 vccd1 vccd1 _145_ sky130_fd_sc_hd__o21ai_1
XFILLER_13_189 vssd1 vssd1 vccd1 vccd1 sky130_ef_sc_hd__decap_12
XFILLER_9_105 vssd1 vssd1 vccd1 vccd1 sky130_fd_sc_hd__decap_6
X_293_ _217_ _052_ vssd1 vssd1 vccd1 vccd1 _087_ sky130_fd_sc_hd__or2b_1
XFILLER_3_57 vssd1 vssd1 vccd1 vccd1 sky130_fd_sc_hd__decap_8
X_345_ _131_ vssd1 vssd1 vccd1 vccd1 _007_ sky130_fd_sc_hd__clkbuf_1
X_276_ _071_ _010_ vssd1 vssd1 vccd1 vccd1 _072_ sky130_fd_sc_hd__and2_1
X_414_ clock_div\[0\] clock_div\[2\] clock_div\[1\] vssd1 vssd1 vccd1 vccd1 _186_
+ sky130_fd_sc_hd__and3_1
XFILLER_23_43 vssd1 vssd1 vccd1 vccd1 sky130_fd_sc_hd__decap_4
XFILLER_23_98 vssd1 vssd1 vccd1 vccd1 sky130_fd_sc_hd__decap_4
XFILLER_9_12 vssd1 vssd1 vccd1 vccd1 sky130_fd_sc_hd__decap_4
X_259_ net1 _049_ _050_ vssd1 vssd1 vccd1 vccd1 _058_ sky130_fd_sc_hd__or3_1
XFILLER_0_36 vssd1 vssd1 vccd1 vccd1 sky130_fd_sc_hd__decap_4
XFILLER_2_155 vssd1 vssd1 vccd1 vccd1 sky130_fd_sc_hd__fill_1
X_328_ _040_ _115_ _117_ _118_ vssd1 vssd1 vccd1 vccd1 _004_ sky130_fd_sc_hd__a2bb2o_1
XFILLER_20_221 vssd1 vssd1 vccd1 vccd1 sky130_ef_sc_hd__decap_12
XFILLER_34_97 vssd1 vssd1 vccd1 vccd1 sky130_ef_sc_hd__decap_12
XFILLER_34_53 vssd1 vssd1 vccd1 vccd1 sky130_ef_sc_hd__decap_12
XFILLER_18_43 vssd1 vssd1 vccd1 vccd1 sky130_fd_sc_hd__fill_1
XFILLER_11_210 vssd1 vssd1 vccd1 vccd1 sky130_fd_sc_hd__decap_4
XFILLER_7_225 vssd1 vssd1 vccd1 vccd1 sky130_fd_sc_hd__decap_8
XFILLER_34_121 vssd1 vssd1 vccd1 vccd1 sky130_ef_sc_hd__decap_12
XFILLER_28_195 vssd1 vssd1 vccd1 vccd1 sky130_fd_sc_hd__fill_1
XFILLER_34_165 vssd1 vssd1 vccd1 vccd1 sky130_ef_sc_hd__decap_12
XFILLER_31_113 vssd1 vssd1 vccd1 vccd1 sky130_ef_sc_hd__decap_12
XTAP_179 vssd1 vccd1 sky130_fd_sc_hd__tapvpwrvgnd_1
XTAP_168 vssd1 vccd1 sky130_fd_sc_hd__tapvpwrvgnd_1
XTAP_157 vssd1 vccd1 sky130_fd_sc_hd__tapvpwrvgnd_1
XTAP_146 vssd1 vccd1 sky130_fd_sc_hd__tapvpwrvgnd_1
XTAP_135 vssd1 vccd1 sky130_fd_sc_hd__tapvpwrvgnd_1
XTAP_124 vssd1 vccd1 sky130_fd_sc_hd__tapvpwrvgnd_1
XTAP_113 vssd1 vccd1 sky130_fd_sc_hd__tapvpwrvgnd_1
XTAP_102 vssd1 vccd1 sky130_fd_sc_hd__tapvpwrvgnd_1
XFILLER_26_65 vssd1 vssd1 vccd1 vccd1 sky130_ef_sc_hd__decap_12
X_430_ _213_ _126_ vssd1 vssd1 vccd1 vccd1 _195_ sky130_fd_sc_hd__and2_1
X_361_ _041_ vssd1 vssd1 vccd1 vccd1 _144_ sky130_fd_sc_hd__inv_2
XFILLER_13_113 vssd1 vssd1 vccd1 vccd1 sky130_ef_sc_hd__decap_12
X_292_ _085_ _074_ vssd1 vssd1 vccd1 vccd1 _086_ sky130_fd_sc_hd__nor2_1
XFILLER_8_161 vssd1 vssd1 vccd1 vccd1 sky130_fd_sc_hd__decap_4
XFILLER_3_69 vssd1 vssd1 vccd1 vccd1 sky130_fd_sc_hd__decap_4
XFILLER_27_205 vssd1 vssd1 vccd1 vccd1 sky130_ef_sc_hd__decap_12
XFILLER_10_138 vssd1 vssd1 vccd1 vccd1 sky130_fd_sc_hd__fill_2
X_344_ rhythm_LFSR\[1\] _130_ _126_ vssd1 vssd1 vccd1 vccd1 _131_ sky130_fd_sc_hd__mux2_1
X_275_ PC\[1\] vssd1 vssd1 vccd1 vccd1 _071_ sky130_fd_sc_hd__inv_2
X_413_ clock_div\[0\] clock_div\[1\] _185_ vssd1 vssd1 vccd1 vccd1 _027_ sky130_fd_sc_hd__o21a_1
XFILLER_23_77 vssd1 vssd1 vccd1 vccd1 sky130_fd_sc_hd__decap_6
XFILLER_0_15 vssd1 vssd1 vccd1 vccd1 sky130_fd_sc_hd__decap_4
XFILLER_2_112 vssd1 vssd1 vccd1 vccd1 sky130_fd_sc_hd__decap_4
XFILLER_3_3 vssd1 vssd1 vccd1 vccd1 sky130_fd_sc_hd__decap_8
XFILLER_9_68 vssd1 vssd1 vccd1 vccd1 sky130_fd_sc_hd__decap_4
XFILLER_9_57 vssd1 vssd1 vccd1 vccd1 sky130_fd_sc_hd__fill_2
X_258_ net1 _056_ vssd1 vssd1 vccd1 vccd1 _057_ sky130_fd_sc_hd__or2_2
X_327_ _014_ _082_ _111_ _116_ vssd1 vssd1 vccd1 vccd1 _118_ sky130_fd_sc_hd__a211o_1
XFILLER_34_65 vssd1 vssd1 vccd1 vccd1 sky130_ef_sc_hd__decap_12
XFILLER_22_9 vssd1 vssd1 vccd1 vccd1 sky130_fd_sc_hd__fill_1
XFILLER_20_34 vssd1 vssd1 vccd1 vccd1 sky130_fd_sc_hd__decap_4
XFILLER_28_141 vssd1 vssd1 vccd1 vccd1 sky130_ef_sc_hd__decap_12
XFILLER_6_25 vssd1 vssd1 vccd1 vccd1 sky130_fd_sc_hd__decap_3
XFILLER_34_177 vssd1 vssd1 vccd1 vccd1 sky130_ef_sc_hd__decap_12
XFILLER_34_133 vssd1 vssd1 vccd1 vccd1 sky130_fd_sc_hd__decap_6
XFILLER_31_55 vssd1 vssd1 vccd1 vccd1 sky130_fd_sc_hd__fill_1
XFILLER_0_221 vssd1 vssd1 vccd1 vccd1 sky130_fd_sc_hd__decap_3
XFILLER_31_169 vssd1 vssd1 vccd1 vccd1 sky130_ef_sc_hd__decap_12
XFILLER_31_125 vssd1 vssd1 vccd1 vccd1 sky130_ef_sc_hd__decap_12
XTAP_169 vssd1 vccd1 sky130_fd_sc_hd__tapvpwrvgnd_1
XTAP_158 vssd1 vccd1 sky130_fd_sc_hd__tapvpwrvgnd_1
XTAP_147 vssd1 vccd1 sky130_fd_sc_hd__tapvpwrvgnd_1
XTAP_136 vssd1 vccd1 sky130_fd_sc_hd__tapvpwrvgnd_1
XTAP_125 vssd1 vccd1 sky130_fd_sc_hd__tapvpwrvgnd_1
XTAP_114 vssd1 vccd1 sky130_fd_sc_hd__tapvpwrvgnd_1
XTAP_103 vssd1 vccd1 sky130_fd_sc_hd__tapvpwrvgnd_1
XFILLER_26_77 vssd1 vssd1 vccd1 vccd1 sky130_fd_sc_hd__decap_6
X_360_ LFSR\[5\] LFSR\[4\] _142_ _210_ vssd1 vssd1 vccd1 vccd1 _143_ sky130_fd_sc_hd__o31ai_4
XFILLER_13_169 vssd1 vssd1 vccd1 vccd1 sky130_fd_sc_hd__fill_2
XFILLER_13_158 vssd1 vssd1 vccd1 vccd1 sky130_fd_sc_hd__decap_8
XFILLER_13_125 vssd1 vssd1 vccd1 vccd1 sky130_fd_sc_hd__decap_4
X_291_ PC\[2\] vssd1 vssd1 vccd1 vccd1 _085_ sky130_fd_sc_hd__inv_2
XFILLER_12_180 vssd1 vssd1 vccd1 vccd1 sky130_fd_sc_hd__decap_4
XFILLER_27_217 vssd1 vssd1 vccd1 vccd1 sky130_fd_sc_hd__decap_6
X_343_ _213_ _128_ _129_ rhythm_LFSR\[2\] _210_ vssd1 vssd1 vccd1 vccd1 _130_ sky130_fd_sc_hd__a32o_1
X_412_ clock_div\[0\] clock_div\[1\] _138_ vssd1 vssd1 vccd1 vccd1 _185_ sky130_fd_sc_hd__a21oi_1
X_274_ PC\[2\] _057_ vssd1 vssd1 vccd1 vccd1 _070_ sky130_fd_sc_hd__nor2_1
XFILLER_5_110 vssd1 vssd1 vccd1 vccd1 sky130_fd_sc_hd__fill_2
XFILLER_24_209 vssd1 vssd1 vccd1 vccd1 sky130_ef_sc_hd__decap_12
XFILLER_23_89 vssd1 vssd1 vccd1 vccd1 sky130_fd_sc_hd__decap_4
XFILLER_2_124 vssd1 vssd1 vccd1 vccd1 sky130_fd_sc_hd__decap_4
XFILLER_2_135 vssd1 vssd1 vccd1 vccd1 sky130_fd_sc_hd__decap_4
XFILLER_29_3 vssd1 vssd1 vccd1 vccd1 sky130_ef_sc_hd__decap_12
XFILLER_9_36 vssd1 vssd1 vccd1 vccd1 sky130_fd_sc_hd__decap_4
X_326_ _014_ _116_ _015_ vssd1 vssd1 vccd1 vccd1 _117_ sky130_fd_sc_hd__a21oi_1
X_257_ PC\[1\] _216_ vssd1 vssd1 vccd1 vccd1 _056_ sky130_fd_sc_hd__xnor2_1
XFILLER_34_77 vssd1 vssd1 vccd1 vccd1 sky130_fd_sc_hd__decap_6
XFILLER_11_223 vssd1 vssd1 vccd1 vccd1 sky130_fd_sc_hd__fill_1
X_309_ _057_ _059_ _015_ _054_ _048_ vssd1 vssd1 vccd1 vccd1 _102_ sky130_fd_sc_hd__a2111o_1
XFILLER_7_205 vssd1 vssd1 vccd1 vccd1 sky130_fd_sc_hd__fill_1
XFILLER_29_55 vssd1 vssd1 vccd1 vccd1 sky130_fd_sc_hd__fill_1
XFILLER_28_197 vssd1 vssd1 vccd1 vccd1 sky130_ef_sc_hd__decap_12
XFILLER_28_153 vssd1 vssd1 vccd1 vccd1 sky130_ef_sc_hd__decap_12
XFILLER_20_46 vssd1 vssd1 vccd1 vccd1 sky130_fd_sc_hd__decap_8
XFILLER_6_15 vssd1 vssd1 vccd1 vccd1 sky130_fd_sc_hd__fill_2
XFILLER_34_189 vssd1 vssd1 vccd1 vccd1 sky130_fd_sc_hd__decap_6
XFILLER_25_167 vssd1 vssd1 vccd1 vccd1 sky130_fd_sc_hd__fill_1
XFILLER_25_101 vssd1 vssd1 vccd1 vccd1 sky130_fd_sc_hd__decap_8
XFILLER_15_57 vssd1 vssd1 vccd1 vccd1 sky130_fd_sc_hd__fill_2
XFILLER_31_137 vssd1 vssd1 vccd1 vccd1 sky130_ef_sc_hd__decap_12
XTAP_159 vssd1 vccd1 sky130_fd_sc_hd__tapvpwrvgnd_1
XTAP_148 vssd1 vccd1 sky130_fd_sc_hd__tapvpwrvgnd_1
XFILLER_16_112 vssd1 vssd1 vccd1 vccd1 sky130_fd_sc_hd__decap_4
XTAP_137 vssd1 vccd1 sky130_fd_sc_hd__tapvpwrvgnd_1
XTAP_126 vssd1 vccd1 sky130_fd_sc_hd__tapvpwrvgnd_1
XFILLER_11_3 vssd1 vssd1 vccd1 vccd1 sky130_fd_sc_hd__decap_8
XTAP_115 vssd1 vccd1 sky130_fd_sc_hd__tapvpwrvgnd_1
XTAP_104 vssd1 vccd1 sky130_fd_sc_hd__tapvpwrvgnd_1
XFILLER_21_181 vssd1 vssd1 vccd1 vccd1 sky130_ef_sc_hd__decap_12
XFILLER_13_148 vssd1 vssd1 vccd1 vccd1 sky130_fd_sc_hd__decap_8
X_290_ _011_ _062_ vssd1 vssd1 vccd1 vccd1 _084_ sky130_fd_sc_hd__nor2_1
XFILLER_8_141 vssd1 vssd1 vccd1 vccd1 sky130_fd_sc_hd__fill_2
X_342_ tune_ROM\[0\] tune_ROM\[1\] vssd1 vssd1 vccd1 vccd1 _129_ sky130_fd_sc_hd__or2_1
X_273_ _011_ _010_ _068_ _014_ vssd1 vssd1 vccd1 vccd1 _069_ sky130_fd_sc_hd__o31ai_1
XFILLER_12_47 vssd1 vssd1 vccd1 vccd1 sky130_ef_sc_hd__decap_12
X_411_ clock_div\[0\] _138_ vssd1 vssd1 vccd1 vccd1 _026_ sky130_fd_sc_hd__nor2_1
XFILLER_32_221 vssd1 vssd1 vccd1 vccd1 sky130_ef_sc_hd__decap_12
XFILLER_5_166 vssd1 vssd1 vccd1 vccd1 sky130_fd_sc_hd__fill_2
XFILLER_23_68 vssd1 vssd1 vccd1 vccd1 sky130_fd_sc_hd__decap_4
XFILLER_23_57 vssd1 vssd1 vccd1 vccd1 sky130_fd_sc_hd__decap_4
XFILLER_4_81 vssd1 vssd1 vccd1 vccd1 sky130_fd_sc_hd__decap_3
XFILLER_14_221 vssd1 vssd1 vccd1 vccd1 sky130_ef_sc_hd__decap_12
X_256_ _048_ _051_ _054_ vssd1 vssd1 vccd1 vccd1 _055_ sky130_fd_sc_hd__a21o_1
X_325_ _011_ _010_ _048_ _059_ vssd1 vssd1 vccd1 vccd1 _116_ sky130_fd_sc_hd__o22a_1
XFILLER_7_217 vssd1 vssd1 vccd1 vccd1 sky130_fd_sc_hd__decap_6
XFILLER_1_93 vssd1 vssd1 vccd1 vccd1 sky130_fd_sc_hd__decap_4
X_308_ _054_ _099_ _100_ vssd1 vssd1 vccd1 vccd1 _101_ sky130_fd_sc_hd__a21oi_1
X_239_ _039_ vssd1 vssd1 vccd1 vccd1 _040_ sky130_fd_sc_hd__buf_2
XFILLER_28_165 vssd1 vssd1 vccd1 vccd1 sky130_ef_sc_hd__decap_12
XFILLER_28_121 vssd1 vssd1 vccd1 vccd1 sky130_ef_sc_hd__decap_12
XFILLER_20_58 vssd1 vssd1 vccd1 vccd1 sky130_ef_sc_hd__decap_12
XFILLER_19_165 vssd1 vssd1 vccd1 vccd1 sky130_fd_sc_hd__decap_3
XFILLER_19_110 vssd1 vssd1 vccd1 vccd1 sky130_fd_sc_hd__fill_2
XANTENNA_clkbuf_0_clk_A clk vssd1 vssd1 vccd1 vccd1 sky130_fd_sc_hd__diode_2
XFILLER_31_57 vssd1 vssd1 vccd1 vccd1 sky130_ef_sc_hd__decap_12
XFILLER_31_13 vssd1 vssd1 vccd1 vccd1 sky130_ef_sc_hd__decap_12
XFILLER_25_113 vssd1 vssd1 vccd1 vccd1 sky130_ef_sc_hd__decap_12
XFILLER_31_149 vssd1 vssd1 vccd1 vccd1 sky130_ef_sc_hd__decap_12
XFILLER_31_105 vssd1 vssd1 vccd1 vccd1 sky130_fd_sc_hd__decap_6
XTAP_149 vssd1 vccd1 sky130_fd_sc_hd__tapvpwrvgnd_1
XFILLER_16_146 vssd1 vssd1 vccd1 vccd1 sky130_ef_sc_hd__decap_12
XTAP_138 vssd1 vccd1 sky130_fd_sc_hd__tapvpwrvgnd_1
XTAP_127 vssd1 vccd1 sky130_fd_sc_hd__tapvpwrvgnd_1
XTAP_116 vssd1 vccd1 sky130_fd_sc_hd__tapvpwrvgnd_1
XANTENNA__258__A net1 vssd1 vssd1 vccd1 vccd1 sky130_fd_sc_hd__diode_2
XTAP_105 vssd1 vccd1 sky130_fd_sc_hd__tapvpwrvgnd_1
XFILLER_21_193 vssd1 vssd1 vccd1 vccd1 sky130_ef_sc_hd__decap_12
XANTENNA__407__C1 _041_ vssd1 vssd1 vccd1 vccd1 sky130_fd_sc_hd__diode_2
XFILLER_13_138 vssd1 vssd1 vccd1 vccd1 sky130_fd_sc_hd__decap_4
XFILLER_8_197 vssd1 vssd1 vccd1 vccd1 sky130_fd_sc_hd__fill_2
XANTENNA__361__A _041_ vssd1 vssd1 vccd1 vccd1 sky130_fd_sc_hd__diode_2
X_341_ tune_ROM\[0\] tune_ROM\[1\] vssd1 vssd1 vccd1 vccd1 _128_ sky130_fd_sc_hd__nand2_1
X_272_ _051_ _013_ vssd1 vssd1 vccd1 vccd1 _068_ sky130_fd_sc_hd__nor2_1
XFILLER_12_59 vssd1 vssd1 vccd1 vccd1 sky130_fd_sc_hd__decap_6
XFILLER_12_15 vssd1 vssd1 vccd1 vccd1 sky130_ef_sc_hd__decap_12
X_410_ _184_ vssd1 vssd1 vccd1 vccd1 _025_ sky130_fd_sc_hd__clkbuf_1
XFILLER_9_49 vssd1 vssd1 vccd1 vccd1 sky130_fd_sc_hd__decap_6
X_255_ _053_ vssd1 vssd1 vccd1 vccd1 _054_ sky130_fd_sc_hd__buf_2
XFILLER_0_29 vssd1 vssd1 vccd1 vccd1 sky130_fd_sc_hd__fill_2
X_324_ _014_ _113_ _114_ _084_ vssd1 vssd1 vccd1 vccd1 _115_ sky130_fd_sc_hd__o22a_1
XFILLER_11_225 vssd1 vssd1 vccd1 vccd1 sky130_fd_sc_hd__decap_8
XFILLER_1_3 vssd1 vssd1 vccd1 vccd1 sky130_ef_sc_hd__decap_12
XFILLER_34_3 vssd1 vssd1 vccd1 vccd1 sky130_ef_sc_hd__decap_12
X_307_ _076_ _062_ _054_ vssd1 vssd1 vccd1 vccd1 _100_ sky130_fd_sc_hd__a21oi_1
X_238_ _218_ _219_ vssd1 vssd1 vccd1 vccd1 _039_ sky130_fd_sc_hd__or2_1
XFILLER_1_61 vssd1 vssd1 vccd1 vccd1 sky130_fd_sc_hd__fill_1
XFILLER_29_57 vssd1 vssd1 vccd1 vccd1 sky130_ef_sc_hd__decap_12
XFILLER_28_177 vssd1 vssd1 vccd1 vccd1 sky130_ef_sc_hd__decap_12
XFILLER_28_133 vssd1 vssd1 vccd1 vccd1 sky130_fd_sc_hd__decap_6
XFILLER_20_26 vssd1 vssd1 vccd1 vccd1 sky130_fd_sc_hd__fill_2
XFILLER_31_25 vssd1 vssd1 vccd1 vccd1 sky130_ef_sc_hd__decap_12
XFILLER_25_169 vssd1 vssd1 vccd1 vccd1 sky130_ef_sc_hd__decap_12
XFILLER_25_125 vssd1 vssd1 vccd1 vccd1 sky130_ef_sc_hd__decap_12
XFILLER_31_69 vssd1 vssd1 vccd1 vccd1 sky130_ef_sc_hd__decap_12
XFILLER_16_158 vssd1 vssd1 vccd1 vccd1 sky130_ef_sc_hd__decap_12
XTAP_139 vssd1 vccd1 sky130_fd_sc_hd__tapvpwrvgnd_1
XTAP_128 vssd1 vccd1 sky130_fd_sc_hd__tapvpwrvgnd_1
XTAP_117 vssd1 vccd1 sky130_fd_sc_hd__tapvpwrvgnd_1
XPHY_0 vssd1 vssd1 vccd1 vccd1 sky130_fd_sc_hd__decap_3
XFILLER_7_71 vssd1 vssd1 vccd1 vccd1 sky130_fd_sc_hd__fill_1
XTAP_106 vssd1 vccd1 sky130_fd_sc_hd__tapvpwrvgnd_1
XFILLER_21_161 vssd1 vssd1 vccd1 vccd1 sky130_fd_sc_hd__decap_6
XFILLER_13_106 vssd1 vssd1 vccd1 vccd1 sky130_fd_sc_hd__decap_6
XFILLER_16_80 vssd1 vssd1 vccd1 vccd1 sky130_fd_sc_hd__decap_4
XFILLER_12_172 vssd1 vssd1 vccd1 vccd1 sky130_fd_sc_hd__decap_4
XFILLER_8_154 vssd1 vssd1 vccd1 vccd1 sky130_fd_sc_hd__decap_3
XFILLER_8_110 vssd1 vssd1 vccd1 vccd1 sky130_ef_sc_hd__decap_12
XFILLER_18_209 vssd1 vssd1 vccd1 vccd1 sky130_ef_sc_hd__decap_12
XFILLER_12_27 vssd1 vssd1 vccd1 vccd1 sky130_fd_sc_hd__fill_1
X_340_ _127_ vssd1 vssd1 vccd1 vccd1 _006_ sky130_fd_sc_hd__clkbuf_1
XFILLER_5_113 vssd1 vssd1 vccd1 vccd1 sky130_ef_sc_hd__decap_12
X_271_ _057_ vssd1 vssd1 vccd1 vccd1 _011_ sky130_fd_sc_hd__clkinv_2
XFILLER_23_223 vssd1 vssd1 vccd1 vccd1 sky130_fd_sc_hd__fill_1
X_469_ clknet_2_2__leaf_clk _028_ vssd1 vssd1 vccd1 vccd1 clock_div\[2\] sky130_fd_sc_hd__dfxtp_1
X_323_ _074_ _082_ _014_ vssd1 vssd1 vccd1 vccd1 _114_ sky130_fd_sc_hd__o21ai_1
X_254_ net1 _217_ _052_ vssd1 vssd1 vccd1 vccd1 _053_ sky130_fd_sc_hd__or3b_1
XFILLER_0_19 vssd1 vssd1 vccd1 vccd1 sky130_fd_sc_hd__fill_1
XFILLER_2_116 vssd1 vssd1 vccd1 vccd1 sky130_fd_sc_hd__fill_1
XFILLER_2_149 vssd1 vssd1 vccd1 vccd1 sky130_fd_sc_hd__decap_6
XFILLER_1_182 vssd1 vssd1 vccd1 vccd1 sky130_fd_sc_hd__decap_6
XFILLER_18_26 vssd1 vssd1 vccd1 vccd1 sky130_fd_sc_hd__fill_2
XFILLER_27_3 vssd1 vssd1 vccd1 vccd1 sky130_ef_sc_hd__decap_12
X_237_ PC\[5\] PC\[4\] _217_ net1 vssd1 vssd1 vccd1 vccd1 _219_ sky130_fd_sc_hd__a31o_1
X_306_ _059_ _095_ _085_ _057_ vssd1 vssd1 vccd1 vccd1 _099_ sky130_fd_sc_hd__o2bb2a_1
XFILLER_29_69 vssd1 vssd1 vccd1 vccd1 sky130_ef_sc_hd__decap_12
XFILLER_28_189 vssd1 vssd1 vccd1 vccd1 sky130_fd_sc_hd__decap_6
XFILLER_19_145 vssd1 vssd1 vccd1 vccd1 sky130_ef_sc_hd__decap_12
XFILLER_19_101 vssd1 vssd1 vccd1 vccd1 sky130_fd_sc_hd__decap_4
XFILLER_10_82 vssd1 vssd1 vccd1 vccd1 sky130_fd_sc_hd__fill_2
XFILLER_6_29 vssd1 vssd1 vccd1 vccd1 sky130_fd_sc_hd__decap_4
XFILLER_33_181 vssd1 vssd1 vccd1 vccd1 sky130_ef_sc_hd__decap_12
XFILLER_25_137 vssd1 vssd1 vccd1 vccd1 sky130_ef_sc_hd__decap_12
XFILLER_31_37 vssd1 vssd1 vccd1 vccd1 sky130_ef_sc_hd__decap_12
XFILLER_0_225 vssd1 vssd1 vccd1 vccd1 sky130_fd_sc_hd__decap_8
XFILLER_30_195 vssd1 vssd1 vccd1 vccd1 sky130_fd_sc_hd__fill_1
XFILLER_21_81 vssd1 vssd1 vccd1 vccd1 sky130_fd_sc_hd__decap_4
XFILLER_15_181 vssd1 vssd1 vccd1 vccd1 sky130_ef_sc_hd__decap_12
XTAP_129 vssd1 vccd1 sky130_fd_sc_hd__tapvpwrvgnd_1
XTAP_118 vssd1 vccd1 sky130_fd_sc_hd__tapvpwrvgnd_1
XPHY_1 vssd1 vssd1 vccd1 vccd1 sky130_fd_sc_hd__decap_3
XTAP_107 vssd1 vccd1 sky130_fd_sc_hd__tapvpwrvgnd_1
XFILLER_26_15 vssd1 vssd1 vccd1 vccd1 sky130_ef_sc_hd__decap_12
XFILLER_8_133 vssd1 vssd1 vccd1 vccd1 sky130_fd_sc_hd__decap_6
XFILLER_8_122 vssd1 vssd1 vccd1 vccd1 sky130_fd_sc_hd__decap_6
XFILLER_35_221 vssd1 vssd1 vccd1 vccd1 sky130_fd_sc_hd__decap_3
XFILLER_26_221 vssd1 vssd1 vccd1 vccd1 sky130_ef_sc_hd__decap_12
X_270_ _014_ _060_ _066_ vssd1 vssd1 vccd1 vccd1 _067_ sky130_fd_sc_hd__or3_1
XFILLER_5_125 vssd1 vssd1 vccd1 vccd1 sky130_fd_sc_hd__decap_3
XFILLER_5_136 vssd1 vssd1 vccd1 vccd1 sky130_fd_sc_hd__decap_4
XFILLER_5_169 vssd1 vssd1 vccd1 vccd1 sky130_fd_sc_hd__fill_2
X_399_ _146_ _147_ _150_ _160_ vssd1 vssd1 vccd1 vccd1 _176_ sky130_fd_sc_hd__and4bb_1
X_468_ clknet_2_2__leaf_clk _027_ vssd1 vssd1 vccd1 vccd1 clock_div\[1\] sky130_fd_sc_hd__dfxtp_1
XFILLER_2_139 vssd1 vssd1 vccd1 vccd1 sky130_fd_sc_hd__fill_1
X_322_ PC\[3\] _055_ _063_ vssd1 vssd1 vccd1 vccd1 _113_ sky130_fd_sc_hd__mux2_1
X_253_ PC\[2\] PC\[1\] _216_ PC\[3\] vssd1 vssd1 vccd1 vccd1 _052_ sky130_fd_sc_hd__a31o_1
XFILLER_34_15 vssd1 vssd1 vccd1 vccd1 sky130_ef_sc_hd__decap_12
X_236_ PC\[4\] _217_ PC\[5\] vssd1 vssd1 vccd1 vccd1 _218_ sky130_fd_sc_hd__a21oi_1
X_305_ _074_ _094_ _097_ _013_ _015_ vssd1 vssd1 vccd1 vccd1 _098_ sky130_fd_sc_hd__a221o_1
XFILLER_6_231 vssd1 vssd1 vccd1 vccd1 sky130_fd_sc_hd__fill_2
XFILLER_29_15 vssd1 vssd1 vccd1 vccd1 sky130_ef_sc_hd__decap_12
XFILLER_19_113 vssd1 vssd1 vccd1 vccd1 sky130_fd_sc_hd__decap_6
XFILLER_10_61 vssd1 vssd1 vccd1 vccd1 sky130_fd_sc_hd__decap_4
XFILLER_19_157 vssd1 vssd1 vccd1 vccd1 sky130_fd_sc_hd__decap_8
XFILLER_33_193 vssd1 vssd1 vccd1 vccd1 sky130_ef_sc_hd__decap_12
XFILLER_31_49 vssd1 vssd1 vccd1 vccd1 sky130_fd_sc_hd__decap_6
XFILLER_25_149 vssd1 vssd1 vccd1 vccd1 sky130_ef_sc_hd__decap_12