* NGSPICE file created from tune_player.ext - technology: sky130B

* Black-box entry subcircuit for sky130_fd_sc_hd__tapvpwrvgnd_1 abstract view
.subckt sky130_fd_sc_hd__tapvpwrvgnd_1 VGND VPWR
.ends

* Black-box entry subcircuit for sky130_ef_sc_hd__decap_12 abstract view
.subckt sky130_ef_sc_hd__decap_12 VGND VNB VPB VPWR
.ends

* Black-box entry subcircuit for sky130_fd_sc_hd__fill_2 abstract view
.subckt sky130_fd_sc_hd__fill_2 VGND VNB VPB VPWR
.ends

* Black-box entry subcircuit for sky130_fd_sc_hd__mux2_1 abstract view
.subckt sky130_fd_sc_hd__mux2_1 A0 A1 S VGND VNB VPB VPWR X
.ends

* Black-box entry subcircuit for sky130_fd_sc_hd__o21ai_1 abstract view
.subckt sky130_fd_sc_hd__o21ai_1 A1 A2 B1 VGND VNB VPB VPWR Y
.ends

* Black-box entry subcircuit for sky130_fd_sc_hd__dfxtp_2 abstract view
.subckt sky130_fd_sc_hd__dfxtp_2 CLK D VGND VNB VPB VPWR Q
.ends

* Black-box entry subcircuit for sky130_fd_sc_hd__decap_8 abstract view
.subckt sky130_fd_sc_hd__decap_8 VGND VNB VPB VPWR
.ends

* Black-box entry subcircuit for sky130_fd_sc_hd__decap_6 abstract view
.subckt sky130_fd_sc_hd__decap_6 VGND VNB VPB VPWR
.ends

* Black-box entry subcircuit for sky130_fd_sc_hd__or2_1 abstract view
.subckt sky130_fd_sc_hd__or2_1 A B VGND VNB VPB VPWR X
.ends

* Black-box entry subcircuit for sky130_fd_sc_hd__dfxtp_1 abstract view
.subckt sky130_fd_sc_hd__dfxtp_1 CLK D VGND VNB VPB VPWR Q
.ends

* Black-box entry subcircuit for sky130_fd_sc_hd__o221a_1 abstract view
.subckt sky130_fd_sc_hd__o221a_1 A1 A2 B1 B2 C1 VGND VNB VPB VPWR X
.ends

* Black-box entry subcircuit for sky130_fd_sc_hd__inv_2 abstract view
.subckt sky130_fd_sc_hd__inv_2 A VGND VNB VPB VPWR Y
.ends

* Black-box entry subcircuit for sky130_fd_sc_hd__o21ba_1 abstract view
.subckt sky130_fd_sc_hd__o21ba_1 A1 A2 B1_N VGND VNB VPB VPWR X
.ends

* Black-box entry subcircuit for sky130_fd_sc_hd__decap_3 abstract view
.subckt sky130_fd_sc_hd__decap_3 VGND VNB VPB VPWR
.ends

* Black-box entry subcircuit for sky130_fd_sc_hd__buf_4 abstract view
.subckt sky130_fd_sc_hd__buf_4 A VGND VNB VPB VPWR X
.ends

* Black-box entry subcircuit for sky130_fd_sc_hd__decap_4 abstract view
.subckt sky130_fd_sc_hd__decap_4 VGND VNB VPB VPWR
.ends

* Black-box entry subcircuit for sky130_fd_sc_hd__fill_1 abstract view
.subckt sky130_fd_sc_hd__fill_1 VGND VNB VPB VPWR
.ends

* Black-box entry subcircuit for sky130_fd_sc_hd__and2b_1 abstract view
.subckt sky130_fd_sc_hd__and2b_1 A_N B VGND VNB VPB VPWR X
.ends

* Black-box entry subcircuit for sky130_fd_sc_hd__nor2_1 abstract view
.subckt sky130_fd_sc_hd__nor2_1 A B VGND VNB VPB VPWR Y
.ends

* Black-box entry subcircuit for sky130_fd_sc_hd__o311a_1 abstract view
.subckt sky130_fd_sc_hd__o311a_1 A1 A2 A3 B1 C1 VGND VNB VPB VPWR X
.ends

* Black-box entry subcircuit for sky130_fd_sc_hd__buf_6 abstract view
.subckt sky130_fd_sc_hd__buf_6 A VGND VNB VPB VPWR X
.ends

* Black-box entry subcircuit for sky130_fd_sc_hd__a31o_1 abstract view
.subckt sky130_fd_sc_hd__a31o_1 A1 A2 A3 B1 VGND VNB VPB VPWR X
.ends

* Black-box entry subcircuit for sky130_fd_sc_hd__and2_1 abstract view
.subckt sky130_fd_sc_hd__and2_1 A B VGND VNB VPB VPWR X
.ends

* Black-box entry subcircuit for sky130_fd_sc_hd__a221o_1 abstract view
.subckt sky130_fd_sc_hd__a221o_1 A1 A2 B1 B2 C1 VGND VNB VPB VPWR X
.ends

* Black-box entry subcircuit for sky130_fd_sc_hd__a2bb2o_1 abstract view
.subckt sky130_fd_sc_hd__a2bb2o_1 A1_N A2_N B1 B2 VGND VNB VPB VPWR X
.ends

* Black-box entry subcircuit for sky130_fd_sc_hd__a211o_1 abstract view
.subckt sky130_fd_sc_hd__a211o_1 A1 A2 B1 C1 VGND VNB VPB VPWR X
.ends

* Black-box entry subcircuit for sky130_fd_sc_hd__nor2_2 abstract view
.subckt sky130_fd_sc_hd__nor2_2 A B VGND VNB VPB VPWR Y
.ends

* Black-box entry subcircuit for sky130_fd_sc_hd__a21oi_1 abstract view
.subckt sky130_fd_sc_hd__a21oi_1 A1 A2 B1 VGND VNB VPB VPWR Y
.ends

* Black-box entry subcircuit for sky130_fd_sc_hd__nand2_1 abstract view
.subckt sky130_fd_sc_hd__nand2_1 A B VGND VNB VPB VPWR Y
.ends

* Black-box entry subcircuit for sky130_fd_sc_hd__dfxtp_4 abstract view
.subckt sky130_fd_sc_hd__dfxtp_4 CLK D VGND VNB VPB VPWR Q
.ends

* Black-box entry subcircuit for sky130_fd_sc_hd__or2_4 abstract view
.subckt sky130_fd_sc_hd__or2_4 A B VGND VNB VPB VPWR X
.ends

* Black-box entry subcircuit for sky130_fd_sc_hd__o22a_1 abstract view
.subckt sky130_fd_sc_hd__o22a_1 A1 A2 B1 B2 VGND VNB VPB VPWR X
.ends

* Black-box entry subcircuit for sky130_fd_sc_hd__o2111a_1 abstract view
.subckt sky130_fd_sc_hd__o2111a_1 A1 A2 B1 C1 D1 VGND VNB VPB VPWR X
.ends

* Black-box entry subcircuit for sky130_fd_sc_hd__or3_4 abstract view
.subckt sky130_fd_sc_hd__or3_4 A B C VGND VNB VPB VPWR X
.ends

* Black-box entry subcircuit for sky130_fd_sc_hd__xnor2_1 abstract view
.subckt sky130_fd_sc_hd__xnor2_1 A B VGND VNB VPB VPWR Y
.ends

* Black-box entry subcircuit for sky130_fd_sc_hd__nand3_1 abstract view
.subckt sky130_fd_sc_hd__nand3_1 A B C VGND VNB VPB VPWR Y
.ends

* Black-box entry subcircuit for sky130_fd_sc_hd__nor3_1 abstract view
.subckt sky130_fd_sc_hd__nor3_1 A B C VGND VNB VPB VPWR Y
.ends

* Black-box entry subcircuit for sky130_fd_sc_hd__clkinv_4 abstract view
.subckt sky130_fd_sc_hd__clkinv_4 A VGND VNB VPB VPWR Y
.ends

* Black-box entry subcircuit for sky130_fd_sc_hd__and2_2 abstract view
.subckt sky130_fd_sc_hd__and2_2 A B VGND VNB VPB VPWR X
.ends

* Black-box entry subcircuit for sky130_fd_sc_hd__and4_2 abstract view
.subckt sky130_fd_sc_hd__and4_2 A B C D VGND VNB VPB VPWR X
.ends

* Black-box entry subcircuit for sky130_fd_sc_hd__and3_1 abstract view
.subckt sky130_fd_sc_hd__and3_1 A B C VGND VNB VPB VPWR X
.ends

* Black-box entry subcircuit for sky130_fd_sc_hd__clkbuf_16 abstract view
.subckt sky130_fd_sc_hd__clkbuf_16 A VGND VNB VPB VPWR X
.ends

* Black-box entry subcircuit for sky130_fd_sc_hd__a32o_1 abstract view
.subckt sky130_fd_sc_hd__a32o_1 A1 A2 A3 B1 B2 VGND VNB VPB VPWR X
.ends

* Black-box entry subcircuit for sky130_fd_sc_hd__xor2_1 abstract view
.subckt sky130_fd_sc_hd__xor2_1 A B VGND VNB VPB VPWR X
.ends

* Black-box entry subcircuit for sky130_fd_sc_hd__or3b_2 abstract view
.subckt sky130_fd_sc_hd__or3b_2 A B C_N VGND VNB VPB VPWR X
.ends

* Black-box entry subcircuit for sky130_fd_sc_hd__a22o_1 abstract view
.subckt sky130_fd_sc_hd__a22o_1 A1 A2 B1 B2 VGND VNB VPB VPWR X
.ends

* Black-box entry subcircuit for sky130_fd_sc_hd__nor3b_4 abstract view
.subckt sky130_fd_sc_hd__nor3b_4 A B C_N VGND VNB VPB VPWR Y
.ends

* Black-box entry subcircuit for sky130_fd_sc_hd__o41a_1 abstract view
.subckt sky130_fd_sc_hd__o41a_1 A1 A2 A3 A4 B1 VGND VNB VPB VPWR X
.ends

* Black-box entry subcircuit for sky130_fd_sc_hd__o21a_1 abstract view
.subckt sky130_fd_sc_hd__o21a_1 A1 A2 B1 VGND VNB VPB VPWR X
.ends

* Black-box entry subcircuit for sky130_fd_sc_hd__a311o_1 abstract view
.subckt sky130_fd_sc_hd__a311o_1 A1 A2 A3 B1 C1 VGND VNB VPB VPWR X
.ends

* Black-box entry subcircuit for sky130_fd_sc_hd__clkbuf_2 abstract view
.subckt sky130_fd_sc_hd__clkbuf_2 A VGND VNB VPB VPWR X
.ends

* Black-box entry subcircuit for sky130_fd_sc_hd__o211a_4 abstract view
.subckt sky130_fd_sc_hd__o211a_4 A1 A2 B1 C1 VGND VNB VPB VPWR X
.ends

* Black-box entry subcircuit for sky130_fd_sc_hd__or3_2 abstract view
.subckt sky130_fd_sc_hd__or3_2 A B C VGND VNB VPB VPWR X
.ends

* Black-box entry subcircuit for sky130_fd_sc_hd__a21bo_1 abstract view
.subckt sky130_fd_sc_hd__a21bo_1 A1 A2 B1_N VGND VNB VPB VPWR X
.ends

* Black-box entry subcircuit for sky130_fd_sc_hd__nand4_2 abstract view
.subckt sky130_fd_sc_hd__nand4_2 A B C D VGND VNB VPB VPWR Y
.ends

* Black-box entry subcircuit for sky130_fd_sc_hd__a41o_1 abstract view
.subckt sky130_fd_sc_hd__a41o_1 A1 A2 A3 A4 B1 VGND VNB VPB VPWR X
.ends

* Black-box entry subcircuit for sky130_fd_sc_hd__or4_4 abstract view
.subckt sky130_fd_sc_hd__or4_4 A B C D VGND VNB VPB VPWR X
.ends

* Black-box entry subcircuit for sky130_fd_sc_hd__o211a_1 abstract view
.subckt sky130_fd_sc_hd__o211a_1 A1 A2 B1 C1 VGND VNB VPB VPWR X
.ends

* Black-box entry subcircuit for sky130_fd_sc_hd__or2_2 abstract view
.subckt sky130_fd_sc_hd__or2_2 A B VGND VNB VPB VPWR X
.ends

* Black-box entry subcircuit for sky130_fd_sc_hd__nand2_2 abstract view
.subckt sky130_fd_sc_hd__nand2_2 A B VGND VNB VPB VPWR Y
.ends

* Black-box entry subcircuit for sky130_fd_sc_hd__o31ai_1 abstract view
.subckt sky130_fd_sc_hd__o31ai_1 A1 A2 A3 B1 VGND VNB VPB VPWR Y
.ends

* Black-box entry subcircuit for sky130_fd_sc_hd__a2111o_1 abstract view
.subckt sky130_fd_sc_hd__a2111o_1 A1 A2 B1 C1 D1 VGND VNB VPB VPWR X
.ends

* Black-box entry subcircuit for sky130_fd_sc_hd__or3_1 abstract view
.subckt sky130_fd_sc_hd__or3_1 A B C VGND VNB VPB VPWR X
.ends

* Black-box entry subcircuit for sky130_fd_sc_hd__o211ai_1 abstract view
.subckt sky130_fd_sc_hd__o211ai_1 A1 A2 B1 C1 VGND VNB VPB VPWR Y
.ends

* Black-box entry subcircuit for sky130_fd_sc_hd__o2bb2a_1 abstract view
.subckt sky130_fd_sc_hd__o2bb2a_1 A1_N A2_N B1 B2 VGND VNB VPB VPWR X
.ends

* Black-box entry subcircuit for sky130_fd_sc_hd__and3b_1 abstract view
.subckt sky130_fd_sc_hd__and3b_1 A_N B C VGND VNB VPB VPWR X
.ends

* Black-box entry subcircuit for sky130_fd_sc_hd__o31ai_4 abstract view
.subckt sky130_fd_sc_hd__o31ai_4 A1 A2 A3 B1 VGND VNB VPB VPWR Y
.ends

* Black-box entry subcircuit for sky130_fd_sc_hd__a21o_1 abstract view
.subckt sky130_fd_sc_hd__a21o_1 A1 A2 B1 VGND VNB VPB VPWR X
.ends

* Black-box entry subcircuit for sky130_fd_sc_hd__or3b_4 abstract view
.subckt sky130_fd_sc_hd__or3b_4 A B C_N VGND VNB VPB VPWR X
.ends

* Black-box entry subcircuit for sky130_fd_sc_hd__or4b_2 abstract view
.subckt sky130_fd_sc_hd__or4b_2 A B C D_N VGND VNB VPB VPWR X
.ends

* Black-box entry subcircuit for sky130_fd_sc_hd__nand2b_1 abstract view
.subckt sky130_fd_sc_hd__nand2b_1 A_N B VGND VNB VPB VPWR Y
.ends

* Black-box entry subcircuit for sky130_fd_sc_hd__nor2_4 abstract view
.subckt sky130_fd_sc_hd__nor2_4 A B VGND VNB VPB VPWR Y
.ends

* Black-box entry subcircuit for sky130_fd_sc_hd__a21oi_2 abstract view
.subckt sky130_fd_sc_hd__a21oi_2 A1 A2 B1 VGND VNB VPB VPWR Y
.ends

* Black-box entry subcircuit for sky130_fd_sc_hd__xnor2_2 abstract view
.subckt sky130_fd_sc_hd__xnor2_2 A B VGND VNB VPB VPWR Y
.ends

* Black-box entry subcircuit for sky130_fd_sc_hd__o2111a_4 abstract view
.subckt sky130_fd_sc_hd__o2111a_4 A1 A2 B1 C1 D1 VGND VNB VPB VPWR X
.ends

* Black-box entry subcircuit for sky130_fd_sc_hd__and4_4 abstract view
.subckt sky130_fd_sc_hd__and4_4 A B C D VGND VNB VPB VPWR X
.ends

* Black-box entry subcircuit for sky130_fd_sc_hd__nand3b_1 abstract view
.subckt sky130_fd_sc_hd__nand3b_1 A_N B C VGND VNB VPB VPWR Y
.ends

* Black-box entry subcircuit for sky130_fd_sc_hd__or3b_1 abstract view
.subckt sky130_fd_sc_hd__or3b_1 A B C_N VGND VNB VPB VPWR X
.ends

* Black-box entry subcircuit for sky130_fd_sc_hd__or4b_4 abstract view
.subckt sky130_fd_sc_hd__or4b_4 A B C D_N VGND VNB VPB VPWR X
.ends

* Black-box entry subcircuit for sky130_fd_sc_hd__o31a_1 abstract view
.subckt sky130_fd_sc_hd__o31a_1 A1 A2 A3 B1 VGND VNB VPB VPWR X
.ends

* Black-box entry subcircuit for sky130_fd_sc_hd__and4bb_1 abstract view
.subckt sky130_fd_sc_hd__and4bb_1 A_N B_N C D VGND VNB VPB VPWR X
.ends

* Black-box entry subcircuit for sky130_fd_sc_hd__clkbuf_4 abstract view
.subckt sky130_fd_sc_hd__clkbuf_4 A VGND VNB VPB VPWR X
.ends

.subckt tune_player OP clk rst vccd1 vssd1
XTAP_199 vssd1 vccd1 sky130_fd_sc_hd__tapvpwrvgnd_1
XTAP_188 vssd1 vccd1 sky130_fd_sc_hd__tapvpwrvgnd_1
XTAP_177 vssd1 vccd1 sky130_fd_sc_hd__tapvpwrvgnd_1
XFILLER_22_177 vssd1 vssd1 vccd1 vccd1 sky130_ef_sc_hd__decap_12
XFILLER_26_85 vssd1 vssd1 vccd1 vccd1 sky130_fd_sc_hd__fill_2
X_363_ _421_/Q _362_/X _363_/S vssd1 vssd1 vccd1 vccd1 _421_/D sky130_fd_sc_hd__mux2_1
X_294_ _271_/B _282_/X _300_/B vssd1 vssd1 vccd1 vccd1 _294_/Y sky130_fd_sc_hd__o21ai_1
X_432_ _433_/CLK _432_/D vssd1 vssd1 vccd1 vccd1 _432_/Q sky130_fd_sc_hd__dfxtp_2
XFILLER_27_225 vssd1 vssd1 vccd1 vccd1 sky130_fd_sc_hd__decap_8
XFILLER_33_217 vssd1 vssd1 vccd1 vccd1 sky130_fd_sc_hd__decap_6
X_346_ _346_/A _355_/B vssd1 vssd1 vccd1 vccd1 _346_/X sky130_fd_sc_hd__or2_1
XFILLER_18_225 vssd1 vssd1 vccd1 vccd1 sky130_fd_sc_hd__decap_8
XFILLER_12_65 vssd1 vssd1 vccd1 vccd1 sky130_ef_sc_hd__decap_12
X_415_ _415_/CLK _415_/D vssd1 vssd1 vccd1 vccd1 _415_/Q sky130_fd_sc_hd__dfxtp_1
X_277_ _300_/A _275_/B _276_/Y _246_/Y _413_/D vssd1 vssd1 vccd1 vccd1 _277_/X sky130_fd_sc_hd__o221a_1
XFILLER_5_151 vssd1 vssd1 vccd1 vccd1 sky130_ef_sc_hd__decap_12
XFILLER_30_209 vssd1 vssd1 vccd1 vccd1 sky130_ef_sc_hd__decap_12
X_200_ _411_/Q vssd1 vssd1 vccd1 vccd1 _276_/A sky130_fd_sc_hd__inv_2
XFILLER_0_57 vssd1 vssd1 vccd1 vccd1 sky130_fd_sc_hd__decap_8
X_329_ _391_/B _391_/C _415_/Q vssd1 vssd1 vccd1 vccd1 _330_/C sky130_fd_sc_hd__o21ba_1
XFILLER_12_209 vssd1 vssd1 vccd1 vccd1 sky130_fd_sc_hd__decap_3
XFILLER_34_85 vssd1 vssd1 vccd1 vccd1 sky130_ef_sc_hd__decap_12
XFILLER_34_41 vssd1 vssd1 vccd1 vccd1 sky130_ef_sc_hd__decap_12
XFILLER_18_97 vssd1 vssd1 vccd1 vccd1 sky130_fd_sc_hd__decap_3
XFILLER_18_53 vssd1 vssd1 vccd1 vccd1 sky130_fd_sc_hd__decap_8
Xfanout7 _386_/A vssd1 vssd1 vccd1 vccd1 _438_/D sky130_fd_sc_hd__buf_4
XFILLER_35_109 vssd1 vssd1 vccd1 vccd1 sky130_fd_sc_hd__decap_3
XFILLER_20_65 vssd1 vssd1 vccd1 vccd1 sky130_ef_sc_hd__decap_12
XFILLER_34_197 vssd1 vssd1 vccd1 vccd1 sky130_ef_sc_hd__decap_12
XFILLER_34_153 vssd1 vssd1 vccd1 vccd1 sky130_ef_sc_hd__decap_12
XFILLER_13_3 vssd1 vssd1 vccd1 vccd1 sky130_fd_sc_hd__decap_4
XFILLER_6_23 vssd1 vssd1 vccd1 vccd1 sky130_fd_sc_hd__decap_4
XFILLER_6_89 vssd1 vssd1 vccd1 vccd1 sky130_fd_sc_hd__fill_1
XFILLER_25_142 vssd1 vssd1 vccd1 vccd1 sky130_ef_sc_hd__decap_12
XFILLER_15_65 vssd1 vssd1 vccd1 vccd1 sky130_fd_sc_hd__fill_1
XFILLER_31_167 vssd1 vssd1 vccd1 vccd1 sky130_fd_sc_hd__fill_1
XFILLER_16_197 vssd1 vssd1 vccd1 vccd1 sky130_fd_sc_hd__fill_2
XTAP_189 vssd1 vccd1 sky130_fd_sc_hd__tapvpwrvgnd_1
XTAP_178 vssd1 vccd1 sky130_fd_sc_hd__tapvpwrvgnd_1
XTAP_167 vssd1 vccd1 sky130_fd_sc_hd__tapvpwrvgnd_1
XFILLER_22_189 vssd1 vssd1 vccd1 vccd1 sky130_fd_sc_hd__decap_6
XFILLER_22_101 vssd1 vssd1 vccd1 vccd1 sky130_fd_sc_hd__decap_3
XTAP_156 vssd1 vccd1 sky130_fd_sc_hd__tapvpwrvgnd_1
XTAP_145 vssd1 vccd1 sky130_fd_sc_hd__tapvpwrvgnd_1
XTAP_134 vssd1 vccd1 sky130_fd_sc_hd__tapvpwrvgnd_1
XTAP_123 vssd1 vccd1 sky130_fd_sc_hd__tapvpwrvgnd_1
XTAP_101 vssd1 vccd1 sky130_fd_sc_hd__tapvpwrvgnd_1
XTAP_112 vssd1 vccd1 sky130_fd_sc_hd__tapvpwrvgnd_1
X_362_ _422_/Q _361_/Y _366_/A vssd1 vssd1 vccd1 vccd1 _362_/X sky130_fd_sc_hd__mux2_1
X_293_ _288_/A _293_/B vssd1 vssd1 vccd1 vccd1 _300_/B sky130_fd_sc_hd__and2b_1
X_431_ _433_/CLK _431_/D vssd1 vssd1 vccd1 vccd1 _431_/Q sky130_fd_sc_hd__dfxtp_1
XFILLER_3_57 vssd1 vssd1 vccd1 vccd1 sky130_fd_sc_hd__decap_8
XFILLER_9_105 vssd1 vssd1 vccd1 vccd1 sky130_fd_sc_hd__decap_6
XFILLER_8_171 vssd1 vssd1 vccd1 vccd1 sky130_fd_sc_hd__decap_4
XFILLER_12_77 vssd1 vssd1 vccd1 vccd1 sky130_fd_sc_hd__decap_6
X_345_ _343_/Y _344_/X _346_/A vssd1 vssd1 vccd1 vccd1 _345_/Y sky130_fd_sc_hd__o21ai_1
X_276_ _276_/A _276_/B vssd1 vssd1 vccd1 vccd1 _276_/Y sky130_fd_sc_hd__nor2_1
X_414_ _433_/CLK _414_/D vssd1 vssd1 vccd1 vccd1 _414_/Q sky130_fd_sc_hd__dfxtp_1
XFILLER_5_163 vssd1 vssd1 vccd1 vccd1 sky130_fd_sc_hd__decap_4
X_259_ _235_/Y _413_/D _250_/X _414_/D _258_/X vssd1 vssd1 vccd1 vccd1 _259_/X sky130_fd_sc_hd__o311a_1
X_328_ _408_/Q _327_/X _328_/S vssd1 vssd1 vccd1 vccd1 _408_/D sky130_fd_sc_hd__mux2_1
XFILLER_2_155 vssd1 vssd1 vccd1 vccd1 sky130_ef_sc_hd__decap_12
XFILLER_34_97 vssd1 vssd1 vccd1 vccd1 sky130_ef_sc_hd__decap_12
XFILLER_34_53 vssd1 vssd1 vccd1 vccd1 sky130_ef_sc_hd__decap_12
XFILLER_18_65 vssd1 vssd1 vccd1 vccd1 sky130_fd_sc_hd__decap_6
XFILLER_7_225 vssd1 vssd1 vccd1 vccd1 sky130_fd_sc_hd__decap_8
Xfanout8 _386_/A vssd1 vssd1 vccd1 vccd1 _391_/A sky130_fd_sc_hd__buf_6
XFILLER_20_77 vssd1 vssd1 vccd1 vccd1 sky130_fd_sc_hd__decap_6
XFILLER_20_11 vssd1 vssd1 vccd1 vccd1 sky130_fd_sc_hd__fill_1
XFILLER_1_90 vssd1 vssd1 vccd1 vccd1 sky130_fd_sc_hd__decap_6
XFILLER_34_121 vssd1 vssd1 vccd1 vccd1 sky130_ef_sc_hd__decap_12
XFILLER_28_195 vssd1 vssd1 vccd1 vccd1 sky130_fd_sc_hd__fill_1
XFILLER_19_140 vssd1 vssd1 vccd1 vccd1 sky130_ef_sc_hd__decap_12
XFILLER_34_165 vssd1 vssd1 vccd1 vccd1 sky130_ef_sc_hd__decap_12
XFILLER_25_154 vssd1 vssd1 vccd1 vccd1 sky130_ef_sc_hd__decap_12
XFILLER_15_22 vssd1 vssd1 vccd1 vccd1 sky130_ef_sc_hd__decap_12
XFILLER_31_113 vssd1 vssd1 vccd1 vccd1 sky130_ef_sc_hd__decap_12
XFILLER_16_187 vssd1 vssd1 vccd1 vccd1 sky130_fd_sc_hd__decap_4
XFILLER_16_121 vssd1 vssd1 vccd1 vccd1 sky130_fd_sc_hd__decap_8
XTAP_179 vssd1 vccd1 sky130_fd_sc_hd__tapvpwrvgnd_1
XTAP_168 vssd1 vccd1 sky130_fd_sc_hd__tapvpwrvgnd_1
XFILLER_22_113 vssd1 vssd1 vccd1 vccd1 sky130_ef_sc_hd__decap_12
XTAP_157 vssd1 vccd1 sky130_fd_sc_hd__tapvpwrvgnd_1
XTAP_146 vssd1 vccd1 sky130_fd_sc_hd__tapvpwrvgnd_1
XTAP_135 vssd1 vccd1 sky130_fd_sc_hd__tapvpwrvgnd_1
XTAP_124 vssd1 vccd1 sky130_fd_sc_hd__tapvpwrvgnd_1
XTAP_102 vssd1 vccd1 sky130_fd_sc_hd__tapvpwrvgnd_1
XTAP_113 vssd1 vccd1 sky130_fd_sc_hd__tapvpwrvgnd_1
X_361_ _344_/X _359_/X _360_/X vssd1 vssd1 vccd1 vccd1 _361_/Y sky130_fd_sc_hd__o21ai_1
X_292_ _413_/D _289_/X _291_/X _286_/X vssd1 vssd1 vccd1 vccd1 _401_/D sky130_fd_sc_hd__a31o_1
X_430_ _433_/CLK _430_/D vssd1 vssd1 vccd1 vccd1 _430_/Q sky130_fd_sc_hd__dfxtp_1
XFILLER_13_157 vssd1 vssd1 vccd1 vccd1 sky130_fd_sc_hd__fill_2
XFILLER_13_113 vssd1 vssd1 vccd1 vccd1 sky130_ef_sc_hd__decap_12
XFILLER_8_194 vssd1 vssd1 vccd1 vccd1 sky130_fd_sc_hd__fill_2
XFILLER_27_205 vssd1 vssd1 vccd1 vccd1 sky130_ef_sc_hd__decap_12
XFILLER_6_109 vssd1 vssd1 vccd1 vccd1 sky130_ef_sc_hd__decap_12
X_344_ _403_/Q _344_/B vssd1 vssd1 vccd1 vccd1 _344_/X sky130_fd_sc_hd__and2_1
XFILLER_18_205 vssd1 vssd1 vccd1 vccd1 sky130_fd_sc_hd__fill_1
X_275_ _300_/A _275_/B vssd1 vssd1 vccd1 vccd1 _275_/Y sky130_fd_sc_hd__nor2_1
XFILLER_5_186 vssd1 vssd1 vccd1 vccd1 sky130_ef_sc_hd__decap_12
X_413_ _415_/CLK _413_/D vssd1 vssd1 vccd1 vccd1 _413_/Q sky130_fd_sc_hd__dfxtp_2
XFILLER_23_44 vssd1 vssd1 vccd1 vccd1 sky130_ef_sc_hd__decap_12
XFILLER_0_48 vssd1 vssd1 vccd1 vccd1 sky130_fd_sc_hd__fill_1
XFILLER_2_167 vssd1 vssd1 vccd1 vccd1 sky130_ef_sc_hd__decap_12
XFILLER_3_3 vssd1 vssd1 vccd1 vccd1 sky130_fd_sc_hd__decap_3
X_258_ _411_/Q _288_/A _300_/A _257_/Y _240_/A vssd1 vssd1 vccd1 vccd1 _258_/X sky130_fd_sc_hd__a221o_1
X_327_ _399_/Q _316_/Y _326_/Y _217_/A vssd1 vssd1 vccd1 vccd1 _327_/X sky130_fd_sc_hd__a2bb2o_1
XFILLER_9_57 vssd1 vssd1 vccd1 vccd1 sky130_ef_sc_hd__decap_12
XFILLER_34_65 vssd1 vssd1 vccd1 vccd1 sky130_ef_sc_hd__decap_12
XFILLER_18_77 vssd1 vssd1 vccd1 vccd1 sky130_fd_sc_hd__decap_6
XFILLER_7_204 vssd1 vssd1 vccd1 vccd1 sky130_ef_sc_hd__decap_12
Xfanout9 input1/X vssd1 vssd1 vccd1 vccd1 _386_/A sky130_fd_sc_hd__buf_4
XFILLER_1_80 vssd1 vssd1 vccd1 vccd1 sky130_fd_sc_hd__decap_4
XFILLER_29_87 vssd1 vssd1 vccd1 vccd1 sky130_ef_sc_hd__decap_12
XFILLER_28_141 vssd1 vssd1 vccd1 vccd1 sky130_ef_sc_hd__decap_12
XFILLER_34_177 vssd1 vssd1 vccd1 vccd1 sky130_ef_sc_hd__decap_12
XFILLER_34_133 vssd1 vssd1 vccd1 vccd1 sky130_fd_sc_hd__decap_6
XFILLER_31_55 vssd1 vssd1 vccd1 vccd1 sky130_fd_sc_hd__fill_1
XFILLER_25_166 vssd1 vssd1 vccd1 vccd1 sky130_fd_sc_hd__fill_2
XFILLER_25_111 vssd1 vssd1 vccd1 vccd1 sky130_fd_sc_hd__fill_1
XFILLER_15_34 vssd1 vssd1 vccd1 vccd1 sky130_fd_sc_hd__fill_2
XFILLER_0_221 vssd1 vssd1 vccd1 vccd1 sky130_fd_sc_hd__decap_3
XFILLER_31_169 vssd1 vssd1 vccd1 vccd1 sky130_ef_sc_hd__decap_12
XFILLER_31_125 vssd1 vssd1 vccd1 vccd1 sky130_ef_sc_hd__decap_12
XTAP_169 vssd1 vccd1 sky130_fd_sc_hd__tapvpwrvgnd_1
XFILLER_22_125 vssd1 vssd1 vccd1 vccd1 sky130_ef_sc_hd__decap_12
XTAP_158 vssd1 vccd1 sky130_fd_sc_hd__tapvpwrvgnd_1
XTAP_147 vssd1 vccd1 sky130_fd_sc_hd__tapvpwrvgnd_1
XTAP_136 vssd1 vccd1 sky130_fd_sc_hd__tapvpwrvgnd_1
XTAP_125 vssd1 vccd1 sky130_fd_sc_hd__tapvpwrvgnd_1
XTAP_103 vssd1 vccd1 sky130_fd_sc_hd__tapvpwrvgnd_1
XTAP_114 vssd1 vccd1 sky130_fd_sc_hd__tapvpwrvgnd_1
X_360_ _364_/C _369_/C _344_/X _346_/A vssd1 vssd1 vccd1 vccd1 _360_/X sky130_fd_sc_hd__a211o_1
X_291_ _276_/B _275_/Y _290_/Y _300_/A _414_/D vssd1 vssd1 vccd1 vccd1 _291_/X sky130_fd_sc_hd__a221o_1
XFILLER_13_169 vssd1 vssd1 vccd1 vccd1 sky130_fd_sc_hd__fill_2
XFILLER_13_125 vssd1 vssd1 vccd1 vccd1 sky130_ef_sc_hd__decap_12
XFILLER_12_191 vssd1 vssd1 vccd1 vccd1 sky130_fd_sc_hd__decap_4
XFILLER_12_180 vssd1 vssd1 vccd1 vccd1 sky130_fd_sc_hd__decap_4
XFILLER_8_184 vssd1 vssd1 vccd1 vccd1 sky130_fd_sc_hd__decap_4
XFILLER_27_217 vssd1 vssd1 vccd1 vccd1 sky130_fd_sc_hd__decap_6
X_343_ _403_/Q _344_/B vssd1 vssd1 vccd1 vccd1 _343_/Y sky130_fd_sc_hd__nor2_1
X_274_ _410_/D _274_/B vssd1 vssd1 vccd1 vccd1 _275_/B sky130_fd_sc_hd__nor2_2
XFILLER_5_198 vssd1 vssd1 vccd1 vccd1 sky130_ef_sc_hd__decap_12
X_412_ _415_/CLK _412_/D vssd1 vssd1 vccd1 vccd1 _412_/Q sky130_fd_sc_hd__dfxtp_1
XFILLER_24_209 vssd1 vssd1 vccd1 vccd1 sky130_ef_sc_hd__decap_12
XFILLER_4_80 vssd1 vssd1 vccd1 vccd1 sky130_fd_sc_hd__decap_4
XFILLER_4_91 vssd1 vssd1 vccd1 vccd1 sky130_fd_sc_hd__fill_1
XFILLER_23_78 vssd1 vssd1 vccd1 vccd1 sky130_fd_sc_hd__decap_4
XFILLER_23_23 vssd1 vssd1 vccd1 vccd1 sky130_ef_sc_hd__decap_12
XFILLER_23_12 vssd1 vssd1 vccd1 vccd1 sky130_fd_sc_hd__decap_8
XFILLER_2_135 vssd1 vssd1 vccd1 vccd1 sky130_fd_sc_hd__decap_4
XFILLER_2_179 vssd1 vssd1 vccd1 vccd1 sky130_ef_sc_hd__decap_12
XFILLER_29_3 vssd1 vssd1 vccd1 vccd1 sky130_ef_sc_hd__decap_12
X_257_ _263_/A _293_/B _230_/X vssd1 vssd1 vccd1 vccd1 _257_/Y sky130_fd_sc_hd__o21ai_1
X_326_ _406_/Q _405_/Q _438_/Q vssd1 vssd1 vccd1 vccd1 _326_/Y sky130_fd_sc_hd__a21oi_1
XFILLER_9_36 vssd1 vssd1 vccd1 vccd1 sky130_ef_sc_hd__decap_12
XFILLER_9_69 vssd1 vssd1 vccd1 vccd1 sky130_fd_sc_hd__decap_4
XFILLER_34_77 vssd1 vssd1 vccd1 vccd1 sky130_fd_sc_hd__decap_6
XFILLER_18_23 vssd1 vssd1 vccd1 vccd1 sky130_fd_sc_hd__decap_4
XFILLER_11_223 vssd1 vssd1 vccd1 vccd1 sky130_fd_sc_hd__fill_1
XFILLER_11_201 vssd1 vssd1 vccd1 vccd1 sky130_fd_sc_hd__decap_8
X_309_ _299_/B _308_/X _305_/Y _304_/X vssd1 vssd1 vccd1 vccd1 _403_/D sky130_fd_sc_hd__a2bb2o_1
XFILLER_7_216 vssd1 vssd1 vccd1 vccd1 sky130_fd_sc_hd__decap_8
XFILLER_29_99 vssd1 vssd1 vccd1 vccd1 sky130_ef_sc_hd__decap_12
XFILLER_29_55 vssd1 vssd1 vccd1 vccd1 sky130_fd_sc_hd__fill_1
XFILLER_28_197 vssd1 vssd1 vccd1 vccd1 sky130_ef_sc_hd__decap_12
XFILLER_28_153 vssd1 vssd1 vccd1 vccd1 sky130_ef_sc_hd__decap_12
XFILLER_34_189 vssd1 vssd1 vccd1 vccd1 sky130_fd_sc_hd__decap_6
XFILLER_19_131 vssd1 vssd1 vccd1 vccd1 sky130_fd_sc_hd__fill_1
XFILLER_15_57 vssd1 vssd1 vccd1 vccd1 sky130_fd_sc_hd__decap_8
XFILLER_31_137 vssd1 vssd1 vccd1 vccd1 sky130_ef_sc_hd__decap_12
XTAP_159 vssd1 vccd1 sky130_fd_sc_hd__tapvpwrvgnd_1
XTAP_148 vssd1 vccd1 sky130_fd_sc_hd__tapvpwrvgnd_1
XTAP_137 vssd1 vccd1 sky130_fd_sc_hd__tapvpwrvgnd_1
XTAP_126 vssd1 vccd1 sky130_fd_sc_hd__tapvpwrvgnd_1
XFILLER_11_3 vssd1 vssd1 vccd1 vccd1 sky130_ef_sc_hd__decap_12
XTAP_104 vssd1 vccd1 sky130_fd_sc_hd__tapvpwrvgnd_1
XTAP_115 vssd1 vccd1 sky130_fd_sc_hd__tapvpwrvgnd_1
XFILLER_22_137 vssd1 vssd1 vccd1 vccd1 sky130_fd_sc_hd__decap_3
XFILLER_21_181 vssd1 vssd1 vccd1 vccd1 sky130_ef_sc_hd__decap_12
X_290_ _306_/S _290_/B vssd1 vssd1 vccd1 vccd1 _290_/Y sky130_fd_sc_hd__nand2_1
XFILLER_13_137 vssd1 vssd1 vccd1 vccd1 sky130_ef_sc_hd__decap_12
XFILLER_12_170 vssd1 vssd1 vccd1 vccd1 sky130_fd_sc_hd__decap_4
XFILLER_8_141 vssd1 vssd1 vccd1 vccd1 sky130_fd_sc_hd__fill_2
X_342_ _417_/Q _341_/X _363_/S vssd1 vssd1 vccd1 vccd1 _417_/D sky130_fd_sc_hd__mux2_1
X_273_ _263_/A _288_/A _273_/S vssd1 vssd1 vccd1 vccd1 _273_/X sky130_fd_sc_hd__mux2_1
XFILLER_5_111 vssd1 vssd1 vccd1 vccd1 sky130_fd_sc_hd__fill_1
XFILLER_5_133 vssd1 vssd1 vccd1 vccd1 sky130_fd_sc_hd__fill_2
X_411_ _415_/CLK _411_/D vssd1 vssd1 vccd1 vccd1 _411_/Q sky130_fd_sc_hd__dfxtp_4
XFILLER_32_221 vssd1 vssd1 vccd1 vccd1 sky130_ef_sc_hd__decap_12
XFILLER_23_68 vssd1 vssd1 vccd1 vccd1 sky130_fd_sc_hd__decap_4
XFILLER_23_57 vssd1 vssd1 vccd1 vccd1 sky130_fd_sc_hd__fill_2
XFILLER_23_35 vssd1 vssd1 vccd1 vccd1 sky130_fd_sc_hd__fill_2
X_325_ _407_/Q _324_/X _328_/S vssd1 vssd1 vccd1 vccd1 _407_/D sky130_fd_sc_hd__mux2_1
XFILLER_9_15 vssd1 vssd1 vccd1 vccd1 sky130_fd_sc_hd__fill_1
XFILLER_9_48 vssd1 vssd1 vccd1 vccd1 sky130_fd_sc_hd__decap_8
X_256_ _293_/B vssd1 vssd1 vccd1 vccd1 _411_/D sky130_fd_sc_hd__inv_2
XFILLER_18_46 vssd1 vssd1 vccd1 vccd1 sky130_fd_sc_hd__fill_1
X_239_ _386_/A _239_/B vssd1 vssd1 vccd1 vccd1 _240_/A sky130_fd_sc_hd__or2_4
X_308_ _413_/D _306_/X _307_/Y _275_/B vssd1 vssd1 vccd1 vccd1 _308_/X sky130_fd_sc_hd__o22a_1
XFILLER_28_165 vssd1 vssd1 vccd1 vccd1 sky130_ef_sc_hd__decap_12
XFILLER_4_209 vssd1 vssd1 vccd1 vccd1 sky130_ef_sc_hd__decap_12
XFILLER_19_110 vssd1 vssd1 vccd1 vccd1 sky130_fd_sc_hd__fill_2
XFILLER_10_91 vssd1 vssd1 vccd1 vccd1 sky130_fd_sc_hd__fill_1
XFILLER_6_27 vssd1 vssd1 vccd1 vccd1 sky130_fd_sc_hd__fill_1
XFILLER_31_57 vssd1 vssd1 vccd1 vccd1 sky130_ef_sc_hd__decap_12
XFILLER_25_113 vssd1 vssd1 vccd1 vccd1 sky130_fd_sc_hd__fill_2
XFILLER_31_149 vssd1 vssd1 vccd1 vccd1 sky130_ef_sc_hd__decap_12
XFILLER_31_105 vssd1 vssd1 vccd1 vccd1 sky130_fd_sc_hd__decap_6
XTAP_149 vssd1 vccd1 sky130_fd_sc_hd__tapvpwrvgnd_1
XFILLER_16_179 vssd1 vssd1 vccd1 vccd1 sky130_fd_sc_hd__fill_1
XTAP_138 vssd1 vccd1 sky130_fd_sc_hd__tapvpwrvgnd_1
XTAP_127 vssd1 vccd1 sky130_fd_sc_hd__tapvpwrvgnd_1
XTAP_105 vssd1 vccd1 sky130_fd_sc_hd__tapvpwrvgnd_1
XTAP_116 vssd1 vccd1 sky130_fd_sc_hd__tapvpwrvgnd_1
XFILLER_26_79 vssd1 vssd1 vccd1 vccd1 sky130_fd_sc_hd__decap_4
XFILLER_21_193 vssd1 vssd1 vccd1 vccd1 sky130_ef_sc_hd__decap_12
XFILLER_13_149 vssd1 vssd1 vccd1 vccd1 sky130_fd_sc_hd__decap_8
XFILLER_12_160 vssd1 vssd1 vccd1 vccd1 sky130_fd_sc_hd__decap_4
XFILLER_8_197 vssd1 vssd1 vccd1 vccd1 sky130_fd_sc_hd__fill_2
X_341_ _418_/Q _340_/Y _366_/A vssd1 vssd1 vccd1 vccd1 _341_/X sky130_fd_sc_hd__mux2_1
XFILLER_12_26 vssd1 vssd1 vccd1 vccd1 sky130_fd_sc_hd__fill_2
X_272_ _411_/Q _412_/D _234_/A _413_/Q _409_/D vssd1 vssd1 vccd1 vccd1 _272_/X sky130_fd_sc_hd__o2111a_1
XFILLER_10_108 vssd1 vssd1 vccd1 vccd1 sky130_ef_sc_hd__decap_12
X_410_ _415_/CLK _410_/D vssd1 vssd1 vccd1 vccd1 _410_/Q sky130_fd_sc_hd__dfxtp_4
XFILLER_5_167 vssd1 vssd1 vccd1 vccd1 sky130_fd_sc_hd__fill_1
XFILLER_4_60 vssd1 vssd1 vccd1 vccd1 sky130_fd_sc_hd__decap_4
XFILLER_0_29 vssd1 vssd1 vccd1 vccd1 sky130_fd_sc_hd__decap_6
XFILLER_2_115 vssd1 vssd1 vccd1 vccd1 sky130_ef_sc_hd__decap_12
XFILLER_2_148 vssd1 vssd1 vccd1 vccd1 sky130_fd_sc_hd__decap_4
X_324_ _438_/Q _408_/Q _399_/Q _391_/C vssd1 vssd1 vccd1 vccd1 _324_/X sky130_fd_sc_hd__o22a_1
X_255_ _391_/A _261_/C _261_/D vssd1 vssd1 vccd1 vccd1 _293_/B sky130_fd_sc_hd__or3_4
XFILLER_1_181 vssd1 vssd1 vccd1 vccd1 sky130_ef_sc_hd__decap_12
XFILLER_11_225 vssd1 vssd1 vccd1 vccd1 sky130_fd_sc_hd__decap_8
XFILLER_1_3 vssd1 vssd1 vccd1 vccd1 sky130_ef_sc_hd__decap_12
XFILLER_34_3 vssd1 vssd1 vccd1 vccd1 sky130_ef_sc_hd__decap_12
XFILLER_24_90 vssd1 vssd1 vccd1 vccd1 sky130_fd_sc_hd__decap_8
X_238_ _413_/Q _247_/B vssd1 vssd1 vccd1 vccd1 _239_/B sky130_fd_sc_hd__xnor2_1
X_307_ _276_/B _273_/S _413_/D vssd1 vssd1 vccd1 vccd1 _307_/Y sky130_fd_sc_hd__o21ai_1
XFILLER_29_57 vssd1 vssd1 vccd1 vccd1 sky130_ef_sc_hd__decap_12
XFILLER_28_177 vssd1 vssd1 vccd1 vccd1 sky130_ef_sc_hd__decap_12
XFILLER_28_100 vssd1 vssd1 vccd1 vccd1 sky130_fd_sc_hd__fill_1
XFILLER_20_26 vssd1 vssd1 vccd1 vccd1 sky130_fd_sc_hd__fill_2
XFILLER_10_70 vssd1 vssd1 vccd1 vccd1 sky130_ef_sc_hd__decap_12
XFILLER_25_169 vssd1 vssd1 vccd1 vccd1 sky130_ef_sc_hd__decap_12
XFILLER_31_69 vssd1 vssd1 vccd1 vccd1 sky130_ef_sc_hd__decap_12
XTAP_139 vssd1 vccd1 sky130_fd_sc_hd__tapvpwrvgnd_1
XTAP_128 vssd1 vccd1 sky130_fd_sc_hd__tapvpwrvgnd_1
XTAP_117 vssd1 vccd1 sky130_fd_sc_hd__tapvpwrvgnd_1
XPHY_0 vssd1 vssd1 vccd1 vccd1 sky130_fd_sc_hd__decap_3
XTAP_106 vssd1 vccd1 sky130_fd_sc_hd__tapvpwrvgnd_1
XFILLER_26_58 vssd1 vssd1 vccd1 vccd1 sky130_fd_sc_hd__decap_4
XFILLER_26_25 vssd1 vssd1 vccd1 vccd1 sky130_fd_sc_hd__decap_3
X_340_ _340_/A _355_/B _364_/C vssd1 vssd1 vccd1 vccd1 _340_/Y sky130_fd_sc_hd__nand3_1
X_271_ _413_/Q _271_/B _271_/C vssd1 vssd1 vccd1 vccd1 _271_/Y sky130_fd_sc_hd__nor3_1
XFILLER_5_113 vssd1 vssd1 vccd1 vccd1 sky130_ef_sc_hd__decap_12
XFILLER_23_223 vssd1 vssd1 vccd1 vccd1 sky130_fd_sc_hd__fill_1
X_254_ _299_/B vssd1 vssd1 vccd1 vccd1 _414_/D sky130_fd_sc_hd__clkinv_4
XFILLER_13_81 vssd1 vssd1 vccd1 vccd1 sky130_fd_sc_hd__decap_8
X_323_ _323_/A _328_/S vssd1 vssd1 vccd1 vccd1 _395_/S sky130_fd_sc_hd__and2_2
XFILLER_2_127 vssd1 vssd1 vccd1 vccd1 sky130_fd_sc_hd__decap_3
XFILLER_1_193 vssd1 vssd1 vccd1 vccd1 sky130_ef_sc_hd__decap_12
XFILLER_18_15 vssd1 vssd1 vccd1 vccd1 sky130_fd_sc_hd__decap_4
XFILLER_11_215 vssd1 vssd1 vccd1 vccd1 sky130_fd_sc_hd__decap_8
XFILLER_27_3 vssd1 vssd1 vccd1 vccd1 sky130_ef_sc_hd__decap_12
X_237_ _412_/Q _411_/Q _410_/Q _237_/D vssd1 vssd1 vccd1 vccd1 _247_/B sky130_fd_sc_hd__and4_2
X_306_ _412_/Q _264_/X _306_/S vssd1 vssd1 vccd1 vccd1 _306_/X sky130_fd_sc_hd__mux2_1
XFILLER_29_69 vssd1 vssd1 vccd1 vccd1 sky130_ef_sc_hd__decap_12
XFILLER_1_51 vssd1 vssd1 vccd1 vccd1 sky130_fd_sc_hd__decap_4
XFILLER_28_189 vssd1 vssd1 vccd1 vccd1 sky130_fd_sc_hd__decap_6
XFILLER_19_178 vssd1 vssd1 vccd1 vccd1 sky130_fd_sc_hd__decap_4
XFILLER_19_167 vssd1 vssd1 vccd1 vccd1 sky130_fd_sc_hd__fill_1
XFILLER_6_29 vssd1 vssd1 vccd1 vccd1 sky130_fd_sc_hd__decap_6
XFILLER_10_82 vssd1 vssd1 vccd1 vccd1 sky130_fd_sc_hd__fill_2
XFILLER_33_181 vssd1 vssd1 vccd1 vccd1 sky130_ef_sc_hd__decap_12
XFILLER_31_15 vssd1 vssd1 vccd1 vccd1 sky130_ef_sc_hd__decap_12
XFILLER_0_225 vssd1 vssd1 vccd1 vccd1 sky130_fd_sc_hd__decap_8
XFILLER_30_195 vssd1 vssd1 vccd1 vccd1 sky130_fd_sc_hd__fill_1
XTAP_129 vssd1 vccd1 sky130_fd_sc_hd__tapvpwrvgnd_1
XTAP_118 vssd1 vccd1 sky130_fd_sc_hd__tapvpwrvgnd_1