* NGSPICE file created from wrapped_as1802.ext - technology: sky130B

* Black-box entry subcircuit for sky130_fd_sc_hd__o31a_1 abstract view
.subckt sky130_fd_sc_hd__o31a_1 A1 A2 A3 B1 VGND VNB VPB VPWR X
.ends

* Black-box entry subcircuit for sky130_fd_sc_hd__or2_1 abstract view
.subckt sky130_fd_sc_hd__or2_1 A B VGND VNB VPB VPWR X
.ends

* Black-box entry subcircuit for sky130_fd_sc_hd__decap_4 abstract view
.subckt sky130_fd_sc_hd__decap_4 VGND VNB VPB VPWR
.ends

* Black-box entry subcircuit for sky130_ef_sc_hd__decap_12 abstract view
.subckt sky130_ef_sc_hd__decap_12 VGND VNB VPB VPWR
.ends

* Black-box entry subcircuit for sky130_fd_sc_hd__fill_2 abstract view
.subckt sky130_fd_sc_hd__fill_2 VGND VNB VPB VPWR
.ends

* Black-box entry subcircuit for sky130_fd_sc_hd__and3_1 abstract view
.subckt sky130_fd_sc_hd__and3_1 A B C VGND VNB VPB VPWR X
.ends

* Black-box entry subcircuit for sky130_fd_sc_hd__o21a_1 abstract view
.subckt sky130_fd_sc_hd__o21a_1 A1 A2 B1 VGND VNB VPB VPWR X
.ends

* Black-box entry subcircuit for sky130_fd_sc_hd__dfxtp_1 abstract view
.subckt sky130_fd_sc_hd__dfxtp_1 CLK D VGND VNB VPB VPWR Q
.ends

* Black-box entry subcircuit for sky130_fd_sc_hd__decap_3 abstract view
.subckt sky130_fd_sc_hd__decap_3 VGND VNB VPB VPWR
.ends

* Black-box entry subcircuit for sky130_fd_sc_hd__decap_8 abstract view
.subckt sky130_fd_sc_hd__decap_8 VGND VNB VPB VPWR
.ends

* Black-box entry subcircuit for sky130_fd_sc_hd__decap_6 abstract view
.subckt sky130_fd_sc_hd__decap_6 VGND VNB VPB VPWR
.ends

* Black-box entry subcircuit for sky130_fd_sc_hd__conb_1 abstract view
.subckt sky130_fd_sc_hd__conb_1 VGND VNB VPB VPWR HI LO
.ends

* Black-box entry subcircuit for sky130_fd_sc_hd__nor2_2 abstract view
.subckt sky130_fd_sc_hd__nor2_2 A B VGND VNB VPB VPWR Y
.ends

* Black-box entry subcircuit for sky130_fd_sc_hd__a21oi_1 abstract view
.subckt sky130_fd_sc_hd__a21oi_1 A1 A2 B1 VGND VNB VPB VPWR Y
.ends

* Black-box entry subcircuit for sky130_fd_sc_hd__fill_1 abstract view
.subckt sky130_fd_sc_hd__fill_1 VGND VNB VPB VPWR
.ends

* Black-box entry subcircuit for sky130_fd_sc_hd__mux2_1 abstract view
.subckt sky130_fd_sc_hd__mux2_1 A0 A1 S VGND VNB VPB VPWR X
.ends

* Black-box entry subcircuit for sky130_fd_sc_hd__mux2_2 abstract view
.subckt sky130_fd_sc_hd__mux2_2 A0 A1 S VGND VNB VPB VPWR X
.ends

* Black-box entry subcircuit for sky130_fd_sc_hd__nor2_4 abstract view
.subckt sky130_fd_sc_hd__nor2_4 A B VGND VNB VPB VPWR Y
.ends

* Black-box entry subcircuit for sky130_fd_sc_hd__o211a_2 abstract view
.subckt sky130_fd_sc_hd__o211a_2 A1 A2 B1 C1 VGND VNB VPB VPWR X
.ends

* Black-box entry subcircuit for sky130_fd_sc_hd__buf_4 abstract view
.subckt sky130_fd_sc_hd__buf_4 A VGND VNB VPB VPWR X
.ends

* Black-box entry subcircuit for sky130_fd_sc_hd__clkbuf_8 abstract view
.subckt sky130_fd_sc_hd__clkbuf_8 A VGND VNB VPB VPWR X
.ends

* Black-box entry subcircuit for sky130_fd_sc_hd__buf_6 abstract view
.subckt sky130_fd_sc_hd__buf_6 A VGND VNB VPB VPWR X
.ends

* Black-box entry subcircuit for sky130_fd_sc_hd__a21o_1 abstract view
.subckt sky130_fd_sc_hd__a21o_1 A1 A2 B1 VGND VNB VPB VPWR X
.ends

* Black-box entry subcircuit for sky130_fd_sc_hd__o21ba_1 abstract view
.subckt sky130_fd_sc_hd__o21ba_1 A1 A2 B1_N VGND VNB VPB VPWR X
.ends

* Black-box entry subcircuit for sky130_fd_sc_hd__o22a_4 abstract view
.subckt sky130_fd_sc_hd__o22a_4 A1 A2 B1 B2 VGND VNB VPB VPWR X
.ends

* Black-box entry subcircuit for sky130_fd_sc_hd__tapvpwrvgnd_1 abstract view
.subckt sky130_fd_sc_hd__tapvpwrvgnd_1 VGND VPWR
.ends

* Black-box entry subcircuit for sky130_fd_sc_hd__nand2_1 abstract view
.subckt sky130_fd_sc_hd__nand2_1 A B VGND VNB VPB VPWR Y
.ends

* Black-box entry subcircuit for sky130_fd_sc_hd__nand3b_2 abstract view
.subckt sky130_fd_sc_hd__nand3b_2 A_N B C VGND VNB VPB VPWR Y
.ends

* Black-box entry subcircuit for sky130_fd_sc_hd__and4_4 abstract view
.subckt sky130_fd_sc_hd__and4_4 A B C D VGND VNB VPB VPWR X
.ends

* Black-box entry subcircuit for sky130_fd_sc_hd__a31o_1 abstract view
.subckt sky130_fd_sc_hd__a31o_1 A1 A2 A3 B1 VGND VNB VPB VPWR X
.ends

* Black-box entry subcircuit for sky130_fd_sc_hd__a2bb2o_1 abstract view
.subckt sky130_fd_sc_hd__a2bb2o_1 A1_N A2_N B1 B2 VGND VNB VPB VPWR X
.ends

* Black-box entry subcircuit for sky130_fd_sc_hd__o32ai_4 abstract view
.subckt sky130_fd_sc_hd__o32ai_4 A1 A2 A3 B1 B2 VGND VNB VPB VPWR Y
.ends

* Black-box entry subcircuit for sky130_fd_sc_hd__a221o_2 abstract view
.subckt sky130_fd_sc_hd__a221o_2 A1 A2 B1 B2 C1 VGND VNB VPB VPWR X
.ends

* Black-box entry subcircuit for sky130_fd_sc_hd__a221o_4 abstract view
.subckt sky130_fd_sc_hd__a221o_4 A1 A2 B1 B2 C1 VGND VNB VPB VPWR X
.ends

* Black-box entry subcircuit for sky130_fd_sc_hd__or3b_1 abstract view
.subckt sky130_fd_sc_hd__or3b_1 A B C_N VGND VNB VPB VPWR X
.ends

* Black-box entry subcircuit for sky130_fd_sc_hd__dfxtp_4 abstract view
.subckt sky130_fd_sc_hd__dfxtp_4 CLK D VGND VNB VPB VPWR Q
.ends

* Black-box entry subcircuit for sky130_fd_sc_hd__o31ai_2 abstract view
.subckt sky130_fd_sc_hd__o31ai_2 A1 A2 A3 B1 VGND VNB VPB VPWR Y
.ends

* Black-box entry subcircuit for sky130_fd_sc_hd__nor2_8 abstract view
.subckt sky130_fd_sc_hd__nor2_8 A B VGND VNB VPB VPWR Y
.ends

* Black-box entry subcircuit for sky130_fd_sc_hd__or2_4 abstract view
.subckt sky130_fd_sc_hd__or2_4 A B VGND VNB VPB VPWR X
.ends

* Black-box entry subcircuit for sky130_fd_sc_hd__nand2_2 abstract view
.subckt sky130_fd_sc_hd__nand2_2 A B VGND VNB VPB VPWR Y
.ends

* Black-box entry subcircuit for sky130_fd_sc_hd__and3_4 abstract view
.subckt sky130_fd_sc_hd__and3_4 A B C VGND VNB VPB VPWR X
.ends

* Black-box entry subcircuit for sky130_fd_sc_hd__nand2b_1 abstract view
.subckt sky130_fd_sc_hd__nand2b_1 A_N B VGND VNB VPB VPWR Y
.ends

* Black-box entry subcircuit for sky130_fd_sc_hd__or3_2 abstract view
.subckt sky130_fd_sc_hd__or3_2 A B C VGND VNB VPB VPWR X
.ends

* Black-box entry subcircuit for sky130_fd_sc_hd__a21bo_1 abstract view
.subckt sky130_fd_sc_hd__a21bo_1 A1 A2 B1_N VGND VNB VPB VPWR X
.ends

* Black-box entry subcircuit for sky130_fd_sc_hd__clkinv_4 abstract view
.subckt sky130_fd_sc_hd__clkinv_4 A VGND VNB VPB VPWR Y
.ends

* Black-box entry subcircuit for sky130_fd_sc_hd__diode_2 abstract view
.subckt sky130_fd_sc_hd__diode_2 DIODE VGND VNB VPB VPWR
.ends

* Black-box entry subcircuit for sky130_fd_sc_hd__a21oi_2 abstract view
.subckt sky130_fd_sc_hd__a21oi_2 A1 A2 B1 VGND VNB VPB VPWR Y
.ends

* Black-box entry subcircuit for sky130_fd_sc_hd__inv_2 abstract view
.subckt sky130_fd_sc_hd__inv_2 A VGND VNB VPB VPWR Y
.ends

* Black-box entry subcircuit for sky130_fd_sc_hd__nor2_1 abstract view
.subckt sky130_fd_sc_hd__nor2_1 A B VGND VNB VPB VPWR Y
.ends

* Black-box entry subcircuit for sky130_fd_sc_hd__dfxtp_2 abstract view
.subckt sky130_fd_sc_hd__dfxtp_2 CLK D VGND VNB VPB VPWR Q
.ends

* Black-box entry subcircuit for sky130_fd_sc_hd__xor2_1 abstract view
.subckt sky130_fd_sc_hd__xor2_1 A B VGND VNB VPB VPWR X
.ends

* Black-box entry subcircuit for sky130_fd_sc_hd__or2_2 abstract view
.subckt sky130_fd_sc_hd__or2_2 A B VGND VNB VPB VPWR X
.ends

* Black-box entry subcircuit for sky130_fd_sc_hd__o22a_1 abstract view
.subckt sky130_fd_sc_hd__o22a_1 A1 A2 B1 B2 VGND VNB VPB VPWR X
.ends

* Black-box entry subcircuit for sky130_fd_sc_hd__mux4_1 abstract view
.subckt sky130_fd_sc_hd__mux4_1 A0 A1 A2 A3 S0 S1 VGND VNB VPB VPWR X
.ends

* Black-box entry subcircuit for sky130_fd_sc_hd__a211o_1 abstract view
.subckt sky130_fd_sc_hd__a211o_1 A1 A2 B1 C1 VGND VNB VPB VPWR X
.ends

* Black-box entry subcircuit for sky130_fd_sc_hd__o21ai_1 abstract view
.subckt sky130_fd_sc_hd__o21ai_1 A1 A2 B1 VGND VNB VPB VPWR Y
.ends

* Black-box entry subcircuit for sky130_fd_sc_hd__o211a_1 abstract view
.subckt sky130_fd_sc_hd__o211a_1 A1 A2 B1 C1 VGND VNB VPB VPWR X
.ends

* Black-box entry subcircuit for sky130_fd_sc_hd__o21bai_1 abstract view
.subckt sky130_fd_sc_hd__o21bai_1 A1 A2 B1_N VGND VNB VPB VPWR Y
.ends

* Black-box entry subcircuit for sky130_fd_sc_hd__a22o_1 abstract view
.subckt sky130_fd_sc_hd__a22o_1 A1 A2 B1 B2 VGND VNB VPB VPWR X
.ends

* Black-box entry subcircuit for sky130_fd_sc_hd__or4b_1 abstract view
.subckt sky130_fd_sc_hd__or4b_1 A B C D_N VGND VNB VPB VPWR X
.ends

* Black-box entry subcircuit for sky130_fd_sc_hd__o21ai_2 abstract view
.subckt sky130_fd_sc_hd__o21ai_2 A1 A2 B1 VGND VNB VPB VPWR Y
.ends

* Black-box entry subcircuit for sky130_fd_sc_hd__and2_1 abstract view
.subckt sky130_fd_sc_hd__and2_1 A B VGND VNB VPB VPWR X
.ends

* Black-box entry subcircuit for sky130_fd_sc_hd__clkbuf_16 abstract view
.subckt sky130_fd_sc_hd__clkbuf_16 A VGND VNB VPB VPWR X
.ends

* Black-box entry subcircuit for sky130_fd_sc_hd__o22a_2 abstract view
.subckt sky130_fd_sc_hd__o22a_2 A1 A2 B1 B2 VGND VNB VPB VPWR X
.ends

* Black-box entry subcircuit for sky130_fd_sc_hd__mux4_2 abstract view
.subckt sky130_fd_sc_hd__mux4_2 A0 A1 A2 A3 S0 S1 VGND VNB VPB VPWR X
.ends

* Black-box entry subcircuit for sky130_fd_sc_hd__nand2_4 abstract view
.subckt sky130_fd_sc_hd__nand2_4 A B VGND VNB VPB VPWR Y
.ends

* Black-box entry subcircuit for sky130_fd_sc_hd__o21ai_4 abstract view
.subckt sky130_fd_sc_hd__o21ai_4 A1 A2 B1 VGND VNB VPB VPWR Y
.ends

* Black-box entry subcircuit for sky130_fd_sc_hd__clkbuf_4 abstract view
.subckt sky130_fd_sc_hd__clkbuf_4 A VGND VNB VPB VPWR X
.ends

* Black-box entry subcircuit for sky130_fd_sc_hd__nand3_1 abstract view
.subckt sky130_fd_sc_hd__nand3_1 A B C VGND VNB VPB VPWR Y
.ends

* Black-box entry subcircuit for sky130_fd_sc_hd__o311a_1 abstract view
.subckt sky130_fd_sc_hd__o311a_1 A1 A2 A3 B1 C1 VGND VNB VPB VPWR X
.ends

* Black-box entry subcircuit for sky130_fd_sc_hd__or3_4 abstract view
.subckt sky130_fd_sc_hd__or3_4 A B C VGND VNB VPB VPWR X
.ends

* Black-box entry subcircuit for sky130_fd_sc_hd__xnor2_1 abstract view
.subckt sky130_fd_sc_hd__xnor2_1 A B VGND VNB VPB VPWR Y
.ends

* Black-box entry subcircuit for sky130_fd_sc_hd__and2b_1 abstract view
.subckt sky130_fd_sc_hd__and2b_1 A_N B VGND VNB VPB VPWR X
.ends

* Black-box entry subcircuit for sky130_fd_sc_hd__a31o_4 abstract view
.subckt sky130_fd_sc_hd__a31o_4 A1 A2 A3 B1 VGND VNB VPB VPWR X
.ends

* Black-box entry subcircuit for sky130_fd_sc_hd__and4_2 abstract view
.subckt sky130_fd_sc_hd__and4_2 A B C D VGND VNB VPB VPWR X
.ends

* Black-box entry subcircuit for sky130_fd_sc_hd__a21boi_1 abstract view
.subckt sky130_fd_sc_hd__a21boi_1 A1 A2 B1_N VGND VNB VPB VPWR Y
.ends

* Black-box entry subcircuit for sky130_fd_sc_hd__nand2b_4 abstract view
.subckt sky130_fd_sc_hd__nand2b_4 A_N B VGND VNB VPB VPWR Y
.ends

* Black-box entry subcircuit for sky130_fd_sc_hd__nand3_2 abstract view
.subckt sky130_fd_sc_hd__nand3_2 A B C VGND VNB VPB VPWR Y
.ends

* Black-box entry subcircuit for sky130_fd_sc_hd__or4_1 abstract view
.subckt sky130_fd_sc_hd__or4_1 A B C D VGND VNB VPB VPWR X
.ends

* Black-box entry subcircuit for sky130_fd_sc_hd__o21a_4 abstract view
.subckt sky130_fd_sc_hd__o21a_4 A1 A2 B1 VGND VNB VPB VPWR X
.ends

* Black-box entry subcircuit for sky130_fd_sc_hd__or4_2 abstract view
.subckt sky130_fd_sc_hd__or4_2 A B C D VGND VNB VPB VPWR X
.ends

* Black-box entry subcircuit for sky130_fd_sc_hd__buf_8 abstract view
.subckt sky130_fd_sc_hd__buf_8 A VGND VNB VPB VPWR X
.ends

* Black-box entry subcircuit for sky130_fd_sc_hd__nor4_4 abstract view
.subckt sky130_fd_sc_hd__nor4_4 A B C D VGND VNB VPB VPWR Y
.ends

* Black-box entry subcircuit for sky130_fd_sc_hd__o211ai_4 abstract view
.subckt sky130_fd_sc_hd__o211ai_4 A1 A2 B1 C1 VGND VNB VPB VPWR Y
.ends

* Black-box entry subcircuit for sky130_fd_sc_hd__a211o_4 abstract view
.subckt sky130_fd_sc_hd__a211o_4 A1 A2 B1 C1 VGND VNB VPB VPWR X
.ends

* Black-box entry subcircuit for sky130_fd_sc_hd__o211a_4 abstract view
.subckt sky130_fd_sc_hd__o211a_4 A1 A2 B1 C1 VGND VNB VPB VPWR X
.ends

* Black-box entry subcircuit for sky130_fd_sc_hd__a31oi_4 abstract view
.subckt sky130_fd_sc_hd__a31oi_4 A1 A2 A3 B1 VGND VNB VPB VPWR Y
.ends

* Black-box entry subcircuit for sky130_fd_sc_hd__and2_2 abstract view
.subckt sky130_fd_sc_hd__and2_2 A B VGND VNB VPB VPWR X
.ends

* Black-box entry subcircuit for sky130_fd_sc_hd__a221o_1 abstract view
.subckt sky130_fd_sc_hd__a221o_1 A1 A2 B1 B2 C1 VGND VNB VPB VPWR X
.ends

* Black-box entry subcircuit for sky130_fd_sc_hd__o211ai_1 abstract view
.subckt sky130_fd_sc_hd__o211ai_1 A1 A2 B1 C1 VGND VNB VPB VPWR Y
.ends

* Black-box entry subcircuit for sky130_fd_sc_hd__or3_1 abstract view
.subckt sky130_fd_sc_hd__or3_1 A B C VGND VNB VPB VPWR X
.ends

* Black-box entry subcircuit for sky130_fd_sc_hd__or4_4 abstract view
.subckt sky130_fd_sc_hd__or4_4 A B C D VGND VNB VPB VPWR X
.ends

* Black-box entry subcircuit for sky130_fd_sc_hd__xnor2_4 abstract view
.subckt sky130_fd_sc_hd__xnor2_4 A B VGND VNB VPB VPWR Y
.ends

* Black-box entry subcircuit for sky130_fd_sc_hd__o221a_1 abstract view
.subckt sky130_fd_sc_hd__o221a_1 A1 A2 B1 B2 C1 VGND VNB VPB VPWR X
.ends

* Black-box entry subcircuit for sky130_fd_sc_hd__a21oi_4 abstract view
.subckt sky130_fd_sc_hd__a21oi_4 A1 A2 B1 VGND VNB VPB VPWR Y
.ends

* Black-box entry subcircuit for sky130_fd_sc_hd__o31ai_4 abstract view
.subckt sky130_fd_sc_hd__o31ai_4 A1 A2 A3 B1 VGND VNB VPB VPWR Y
.ends

* Black-box entry subcircuit for sky130_fd_sc_hd__a32o_1 abstract view
.subckt sky130_fd_sc_hd__a32o_1 A1 A2 A3 B1 B2 VGND VNB VPB VPWR X
.ends

* Black-box entry subcircuit for sky130_fd_sc_hd__xnor2_2 abstract view
.subckt sky130_fd_sc_hd__xnor2_2 A B VGND VNB VPB VPWR Y
.ends

* Black-box entry subcircuit for sky130_fd_sc_hd__a2111o_1 abstract view
.subckt sky130_fd_sc_hd__a2111o_1 A1 A2 B1 C1 D1 VGND VNB VPB VPWR X
.ends

* Black-box entry subcircuit for sky130_fd_sc_hd__or3b_4 abstract view
.subckt sky130_fd_sc_hd__or3b_4 A B C_N VGND VNB VPB VPWR X
.ends

* Black-box entry subcircuit for sky130_fd_sc_hd__o31a_2 abstract view
.subckt sky130_fd_sc_hd__o31a_2 A1 A2 A3 B1 VGND VNB VPB VPWR X
.ends

* Black-box entry subcircuit for sky130_fd_sc_hd__o221ai_4 abstract view
.subckt sky130_fd_sc_hd__o221ai_4 A1 A2 B1 B2 C1 VGND VNB VPB VPWR Y
.ends

* Black-box entry subcircuit for sky130_fd_sc_hd__and3_2 abstract view
.subckt sky130_fd_sc_hd__and3_2 A B C VGND VNB VPB VPWR X
.ends

* Black-box entry subcircuit for sky130_fd_sc_hd__a211oi_1 abstract view
.subckt sky130_fd_sc_hd__a211oi_1 A1 A2 B1 C1 VGND VNB VPB VPWR Y
.ends

* Black-box entry subcircuit for sky130_fd_sc_hd__o2bb2a_1 abstract view
.subckt sky130_fd_sc_hd__o2bb2a_1 A1_N A2_N B1 B2 VGND VNB VPB VPWR X
.ends

* Black-box entry subcircuit for sky130_fd_sc_hd__and2_4 abstract view
.subckt sky130_fd_sc_hd__and2_4 A B VGND VNB VPB VPWR X
.ends

* Black-box entry subcircuit for sky130_fd_sc_hd__o22ai_4 abstract view
.subckt sky130_fd_sc_hd__o22ai_4 A1 A2 B1 B2 VGND VNB VPB VPWR Y
.ends

* Black-box entry subcircuit for sky130_fd_sc_hd__nand2b_2 abstract view
.subckt sky130_fd_sc_hd__nand2b_2 A_N B VGND VNB VPB VPWR Y
.ends

* Black-box entry subcircuit for sky130_fd_sc_hd__a311oi_1 abstract view
.subckt sky130_fd_sc_hd__a311oi_1 A1 A2 A3 B1 C1 VGND VNB VPB VPWR Y
.ends

* Black-box entry subcircuit for sky130_fd_sc_hd__o32a_4 abstract view
.subckt sky130_fd_sc_hd__o32a_4 A1 A2 A3 B1 B2 VGND VNB VPB VPWR X
.ends

* Black-box entry subcircuit for sky130_fd_sc_hd__a41o_1 abstract view
.subckt sky130_fd_sc_hd__a41o_1 A1 A2 A3 A4 B1 VGND VNB VPB VPWR X
.ends

* Black-box entry subcircuit for sky130_fd_sc_hd__o21a_2 abstract view
.subckt sky130_fd_sc_hd__o21a_2 A1 A2 B1 VGND VNB VPB VPWR X
.ends

* Black-box entry subcircuit for sky130_fd_sc_hd__mux2_4 abstract view
.subckt sky130_fd_sc_hd__mux2_4 A0 A1 S VGND VNB VPB VPWR X
.ends

* Black-box entry subcircuit for sky130_fd_sc_hd__o41a_1 abstract view
.subckt sky130_fd_sc_hd__o41a_1 A1 A2 A3 A4 B1 VGND VNB VPB VPWR X
.ends

* Black-box entry subcircuit for sky130_fd_sc_hd__buf_2 abstract view
.subckt sky130_fd_sc_hd__buf_2 A VGND VNB VPB VPWR X
.ends

* Black-box entry subcircuit for sky130_fd_sc_hd__a311oi_2 abstract view
.subckt sky130_fd_sc_hd__a311oi_2 A1 A2 A3 B1 C1 VGND VNB VPB VPWR Y
.ends

* Black-box entry subcircuit for sky130_fd_sc_hd__o2111a_2 abstract view
.subckt sky130_fd_sc_hd__o2111a_2 A1 A2 B1 C1 D1 VGND VNB VPB VPWR X
.ends

* Black-box entry subcircuit for sky130_fd_sc_hd__o32a_1 abstract view
.subckt sky130_fd_sc_hd__o32a_1 A1 A2 A3 B1 B2 VGND VNB VPB VPWR X
.ends

* Black-box entry subcircuit for sky130_fd_sc_hd__clkbuf_2 abstract view
.subckt sky130_fd_sc_hd__clkbuf_2 A VGND VNB VPB VPWR X
.ends

* Black-box entry subcircuit for sky130_fd_sc_hd__buf_12 abstract view
.subckt sky130_fd_sc_hd__buf_12 A VGND VNB VPB VPWR X
.ends

* Black-box entry subcircuit for sky130_fd_sc_hd__nand2_8 abstract view
.subckt sky130_fd_sc_hd__nand2_8 A B VGND VNB VPB VPWR Y
.ends

* Black-box entry subcircuit for sky130_fd_sc_hd__a311o_1 abstract view
.subckt sky130_fd_sc_hd__a311o_1 A1 A2 A3 B1 C1 VGND VNB VPB VPWR X
.ends

* Black-box entry subcircuit for sky130_fd_sc_hd__a21o_4 abstract view
.subckt sky130_fd_sc_hd__a21o_4 A1 A2 B1 VGND VNB VPB VPWR X
.ends

* Black-box entry subcircuit for sky130_fd_sc_hd__or4bb_4 abstract view
.subckt sky130_fd_sc_hd__or4bb_4 A B C_N D_N VGND VNB VPB VPWR X
.ends

* Black-box entry subcircuit for sky130_fd_sc_hd__nor3b_1 abstract view
.subckt sky130_fd_sc_hd__nor3b_1 A B C_N VGND VNB VPB VPWR Y
.ends

* Black-box entry subcircuit for sky130_fd_sc_hd__a31o_2 abstract view
.subckt sky130_fd_sc_hd__a31o_2 A1 A2 A3 B1 VGND VNB VPB VPWR X
.ends

* Black-box entry subcircuit for sky130_fd_sc_hd__nor3_4 abstract view
.subckt sky130_fd_sc_hd__nor3_4 A B C VGND VNB VPB VPWR Y
.ends

* Black-box entry subcircuit for sky130_fd_sc_hd__a211oi_4 abstract view
.subckt sky130_fd_sc_hd__a211oi_4 A1 A2 B1 C1 VGND VNB VPB VPWR Y
.ends

* Black-box entry subcircuit for sky130_fd_sc_hd__and2b_2 abstract view
.subckt sky130_fd_sc_hd__and2b_2 A_N B VGND VNB VPB VPWR X
.ends

* Black-box entry subcircuit for sky130_fd_sc_hd__or4bb_1 abstract view
.subckt sky130_fd_sc_hd__or4bb_1 A B C_N D_N VGND VNB VPB VPWR X
.ends

* Black-box entry subcircuit for sky130_fd_sc_hd__a21o_2 abstract view
.subckt sky130_fd_sc_hd__a21o_2 A1 A2 B1 VGND VNB VPB VPWR X
.ends

* Black-box entry subcircuit for sky130_fd_sc_hd__a32o_4 abstract view
.subckt sky130_fd_sc_hd__a32o_4 A1 A2 A3 B1 B2 VGND VNB VPB VPWR X
.ends

* Black-box entry subcircuit for sky130_fd_sc_hd__or4b_2 abstract view
.subckt sky130_fd_sc_hd__or4b_2 A B C D_N VGND VNB VPB VPWR X
.ends

* Black-box entry subcircuit for sky130_fd_sc_hd__mux2_8 abstract view
.subckt sky130_fd_sc_hd__mux2_8 A0 A1 S VGND VNB VPB VPWR X
.ends

* Black-box entry subcircuit for sky130_fd_sc_hd__and3b_4 abstract view
.subckt sky130_fd_sc_hd__and3b_4 A_N B C VGND VNB VPB VPWR X
.ends

* Black-box entry subcircuit for sky130_fd_sc_hd__and4_1 abstract view
.subckt sky130_fd_sc_hd__and4_1 A B C D VGND VNB VPB VPWR X
.ends

* Black-box entry subcircuit for sky130_fd_sc_hd__nor3_1 abstract view
.subckt sky130_fd_sc_hd__nor3_1 A B C VGND VNB VPB VPWR Y
.ends

* Black-box entry subcircuit for sky130_fd_sc_hd__and2b_4 abstract view
.subckt sky130_fd_sc_hd__and2b_4 A_N B VGND VNB VPB VPWR X
.ends

* Black-box entry subcircuit for sky130_fd_sc_hd__a32oi_4 abstract view
.subckt sky130_fd_sc_hd__a32oi_4 A1 A2 A3 B1 B2 VGND VNB VPB VPWR Y
.ends

* Black-box entry subcircuit for sky130_fd_sc_hd__a211o_2 abstract view
.subckt sky130_fd_sc_hd__a211o_2 A1 A2 B1 C1 VGND VNB VPB VPWR X
.ends

* Black-box entry subcircuit for sky130_fd_sc_hd__o311a_4 abstract view
.subckt sky130_fd_sc_hd__o311a_4 A1 A2 A3 B1 C1 VGND VNB VPB VPWR X
.ends

* Black-box entry subcircuit for sky130_fd_sc_hd__nor3_2 abstract view
.subckt sky130_fd_sc_hd__nor3_2 A B C VGND VNB VPB VPWR Y
.ends

* Black-box entry subcircuit for sky130_fd_sc_hd__a22o_2 abstract view
.subckt sky130_fd_sc_hd__a22o_2 A1 A2 B1 B2 VGND VNB VPB VPWR X
.ends

* Black-box entry subcircuit for sky130_fd_sc_hd__and4b_1 abstract view
.subckt sky130_fd_sc_hd__and4b_1 A_N B C D VGND VNB VPB VPWR X
.ends

* Black-box entry subcircuit for sky130_fd_sc_hd__a2bb2o_2 abstract view
.subckt sky130_fd_sc_hd__a2bb2o_2 A1_N A2_N B1 B2 VGND VNB VPB VPWR X
.ends

* Black-box entry subcircuit for sky130_fd_sc_hd__o221a_2 abstract view
.subckt sky130_fd_sc_hd__o221a_2 A1 A2 B1 B2 C1 VGND VNB VPB VPWR X
.ends

* Black-box entry subcircuit for sky130_fd_sc_hd__nand3b_1 abstract view
.subckt sky130_fd_sc_hd__nand3b_1 A_N B C VGND VNB VPB VPWR Y
.ends

* Black-box entry subcircuit for sky130_fd_sc_hd__and3b_1 abstract view
.subckt sky130_fd_sc_hd__and3b_1 A_N B C VGND VNB VPB VPWR X
.ends

* Black-box entry subcircuit for sky130_fd_sc_hd__o21bai_2 abstract view
.subckt sky130_fd_sc_hd__o21bai_2 A1 A2 B1_N VGND VNB VPB VPWR Y
.ends

* Black-box entry subcircuit for sky130_fd_sc_hd__or3b_2 abstract view
.subckt sky130_fd_sc_hd__or3b_2 A B C_N VGND VNB VPB VPWR X
.ends

* Black-box entry subcircuit for sky130_fd_sc_hd__and3b_2 abstract view
.subckt sky130_fd_sc_hd__and3b_2 A_N B C VGND VNB VPB VPWR X
.ends

* Black-box entry subcircuit for sky130_fd_sc_hd__nand4_1 abstract view
.subckt sky130_fd_sc_hd__nand4_1 A B C D VGND VNB VPB VPWR Y
.ends

* Black-box entry subcircuit for sky130_fd_sc_hd__a2bb2o_4 abstract view
.subckt sky130_fd_sc_hd__a2bb2o_4 A1_N A2_N B1 B2 VGND VNB VPB VPWR X
.ends

* Black-box entry subcircuit for sky130_fd_sc_hd__o2bb2a_2 abstract view
.subckt sky130_fd_sc_hd__o2bb2a_2 A1_N A2_N B1 B2 VGND VNB VPB VPWR X
.ends

* Black-box entry subcircuit for sky130_fd_sc_hd__a41oi_4 abstract view
.subckt sky130_fd_sc_hd__a41oi_4 A1 A2 A3 A4 B1 VGND VNB VPB VPWR Y
.ends

* Black-box entry subcircuit for sky130_fd_sc_hd__nand4_4 abstract view
.subckt sky130_fd_sc_hd__nand4_4 A B C D VGND VNB VPB VPWR Y
.ends

* Black-box entry subcircuit for sky130_fd_sc_hd__xor2_4 abstract view
.subckt sky130_fd_sc_hd__xor2_4 A B VGND VNB VPB VPWR X
.ends

* Black-box entry subcircuit for sky130_fd_sc_hd__clkinv_2 abstract view
.subckt sky130_fd_sc_hd__clkinv_2 A VGND VNB VPB VPWR Y
.ends

* Black-box entry subcircuit for sky130_fd_sc_hd__o21ba_4 abstract view
.subckt sky130_fd_sc_hd__o21ba_4 A1 A2 B1_N VGND VNB VPB VPWR X
.ends

* Black-box entry subcircuit for sky130_fd_sc_hd__or4b_4 abstract view
.subckt sky130_fd_sc_hd__or4b_4 A B C D_N VGND VNB VPB VPWR X
.ends

* Black-box entry subcircuit for sky130_fd_sc_hd__and4bb_1 abstract view
.subckt sky130_fd_sc_hd__and4bb_1 A_N B_N C D VGND VNB VPB VPWR X
.ends

* Black-box entry subcircuit for sky130_fd_sc_hd__o41a_2 abstract view
.subckt sky130_fd_sc_hd__o41a_2 A1 A2 A3 A4 B1 VGND VNB VPB VPWR X
.ends

* Black-box entry subcircuit for sky130_fd_sc_hd__nor4_2 abstract view
.subckt sky130_fd_sc_hd__nor4_2 A B C D VGND VNB VPB VPWR Y
.ends

* Black-box entry subcircuit for sky130_fd_sc_hd__o2111a_1 abstract view
.subckt sky130_fd_sc_hd__o2111a_1 A1 A2 B1 C1 D1 VGND VNB VPB VPWR X
.ends

.subckt wrapped_as1802 clk io_in[0] io_in[10] io_in[11] io_in[12] io_in[1] io_in[2]
+ io_in[3] io_in[4] io_in[5] io_in[6] io_in[7] io_in[8] io_in[9] io_oeb io_out[0]
+ io_out[10] io_out[11] io_out[12] io_out[13] io_out[14] io_out[15] io_out[16] io_out[17]
+ io_out[18] io_out[19] io_out[1] io_out[20] io_out[21] io_out[22] io_out[23] io_out[24]
+ io_out[25] io_out[26] io_out[2] io_out[3] io_out[4] io_out[5] io_out[6] io_out[7]
+ io_out[8] io_out[9] rst vccd1 vssd1
X_3155_ _3209_/A _3209_/B _4157_/B _4184_/B vssd1 vssd1 vccd1 vccd1 _3155_/X sky130_fd_sc_hd__o31a_1
X_3086_ _3086_/A _3086_/B vssd1 vssd1 vccd1 vccd1 _3086_/X sky130_fd_sc_hd__or2_1
XFILLER_82_589 vssd1 vssd1 vccd1 vccd1 sky130_fd_sc_hd__decap_4
XFILLER_22_100 vssd1 vssd1 vccd1 vccd1 sky130_ef_sc_hd__decap_12
XFILLER_52_29 vssd1 vssd1 vccd1 vccd1 sky130_fd_sc_hd__fill_2
X_3988_ _4620_/Q _3991_/B _3988_/C vssd1 vssd1 vccd1 vccd1 _3989_/C sky130_fd_sc_hd__and3_1
X_2939_ _3209_/A _2940_/A _2995_/A vssd1 vssd1 vccd1 vccd1 _2942_/A sky130_fd_sc_hd__o21a_1
X_4609_ _4630_/CLK _4609_/D vssd1 vssd1 vccd1 vccd1 _4609_/Q sky130_fd_sc_hd__dfxtp_1
XFILLER_77_15 vssd1 vssd1 vccd1 vccd1 sky130_ef_sc_hd__decap_12
XFILLER_92_309 vssd1 vssd1 vccd1 vccd1 sky130_fd_sc_hd__fill_2
XFILLER_58_553 vssd1 vssd1 vccd1 vccd1 sky130_fd_sc_hd__decap_3
XFILLER_73_545 vssd1 vssd1 vccd1 vccd1 sky130_fd_sc_hd__decap_8
XFILLER_45_225 vssd1 vssd1 vccd1 vccd1 sky130_fd_sc_hd__fill_2
XFILLER_93_69 vssd1 vssd1 vccd1 vccd1 sky130_ef_sc_hd__decap_12
XFILLER_26_41 vssd1 vssd1 vccd1 vccd1 sky130_fd_sc_hd__decap_3
XFILLER_45_247 vssd1 vssd1 vccd1 vccd1 sky130_fd_sc_hd__decap_8
XFILLER_14_623 vssd1 vssd1 vccd1 vccd1 sky130_fd_sc_hd__fill_2
XFILLER_14_601 vssd1 vssd1 vccd1 vccd1 sky130_ef_sc_hd__decap_12
XFILLER_26_85 vssd1 vssd1 vccd1 vccd1 sky130_fd_sc_hd__decap_6
XFILLER_41_431 vssd1 vssd1 vccd1 vccd1 sky130_ef_sc_hd__decap_12
XFILLER_13_188 vssd1 vssd1 vccd1 vccd1 sky130_ef_sc_hd__decap_12
Xwrapped_as1802_287 vssd1 vssd1 vccd1 vccd1 wrapped_as1802_287/HI io_out[12] sky130_fd_sc_hd__conb_1
XFILLER_95_125 vssd1 vssd1 vccd1 vccd1 sky130_ef_sc_hd__decap_12
XFILLER_49_531 vssd1 vssd1 vccd1 vccd1 sky130_fd_sc_hd__decap_3
XFILLER_95_169 vssd1 vssd1 vccd1 vccd1 sky130_fd_sc_hd__fill_2
XFILLER_67_92 vssd1 vssd1 vccd1 vccd1 sky130_ef_sc_hd__decap_12
XFILLER_67_81 vssd1 vssd1 vccd1 vccd1 sky130_fd_sc_hd__fill_2
XFILLER_64_578 vssd1 vssd1 vccd1 vccd1 sky130_fd_sc_hd__decap_8
XFILLER_64_589 vssd1 vssd1 vccd1 vccd1 sky130_fd_sc_hd__fill_2
XFILLER_17_461 vssd1 vssd1 vccd1 vccd1 sky130_fd_sc_hd__decap_3
X_3911_ _4127_/A _4132_/A vssd1 vssd1 vccd1 vccd1 _3911_/Y sky130_fd_sc_hd__nor2_2
X_3842_ _4635_/Q _3802_/B _3836_/A vssd1 vssd1 vccd1 vccd1 _3843_/B sky130_fd_sc_hd__a21oi_1
XFILLER_32_475 vssd1 vssd1 vccd1 vccd1 sky130_fd_sc_hd__fill_1
X_3773_ _3771_/X _3772_/X _3773_/S vssd1 vssd1 vccd1 vccd1 _3773_/X sky130_fd_sc_hd__mux2_1
X_2724_ _2722_/X _2723_/X _2889_/A vssd1 vssd1 vccd1 vccd1 _2724_/X sky130_fd_sc_hd__mux2_2
X_2655_ _3185_/A _2655_/B vssd1 vssd1 vccd1 vccd1 _2655_/Y sky130_fd_sc_hd__nor2_4
XFILLER_99_420 vssd1 vssd1 vccd1 vccd1 sky130_fd_sc_hd__decap_4
X_2586_ _2644_/S _2583_/X _2585_/X _2814_/C1 vssd1 vssd1 vccd1 vccd1 _2586_/X sky130_fd_sc_hd__o211a_2
X_4325_ _4689_/Q _4336_/A1 _4327_/S vssd1 vssd1 vccd1 vccd1 _4689_/D sky130_fd_sc_hd__mux2_1
Xfanout138 _3632_/X vssd1 vssd1 vccd1 vccd1 _3747_/B2 sky130_fd_sc_hd__buf_4
Xfanout105 _3140_/S vssd1 vssd1 vccd1 vccd1 _3089_/S sky130_fd_sc_hd__clkbuf_8
Xfanout116 _2931_/C1 vssd1 vssd1 vccd1 vccd1 _3139_/A sky130_fd_sc_hd__buf_6
Xfanout127 _2424_/X vssd1 vssd1 vccd1 vccd1 _2846_/S sky130_fd_sc_hd__buf_4
X_4256_ _4256_/A1 _4254_/X _4255_/Y vssd1 vssd1 vccd1 vccd1 _4256_/X sky130_fd_sc_hd__a21o_1
Xfanout149 _2863_/B vssd1 vssd1 vccd1 vccd1 _2927_/B sky130_fd_sc_hd__buf_4
X_4187_ _3908_/B _4161_/Y _4213_/A vssd1 vssd1 vccd1 vccd1 _4187_/X sky130_fd_sc_hd__o21ba_1
XFILLER_74_309 vssd1 vssd1 vccd1 vccd1 sky130_ef_sc_hd__decap_12
X_3207_ _3194_/X _3199_/X _3206_/X _3257_/A1 vssd1 vssd1 vccd1 vccd1 _3283_/A sky130_fd_sc_hd__o22a_4
X_3138_ _4505_/Q _4561_/Q _3140_/S vssd1 vssd1 vccd1 vccd1 _3139_/B sky130_fd_sc_hd__mux2_1
XFILLER_27_225 vssd1 vssd1 vccd1 vccd1 sky130_fd_sc_hd__fill_2
XFILLER_82_353 vssd1 vssd1 vccd1 vccd1 sky130_fd_sc_hd__decap_8
XFILLER_27_236 vssd1 vssd1 vccd1 vccd1 sky130_fd_sc_hd__decap_6
XFILLER_55_556 vssd1 vssd1 vccd1 vccd1 sky130_fd_sc_hd__decap_4
XTAP_1129 vssd1 vccd1 sky130_fd_sc_hd__tapvpwrvgnd_1
XTAP_1118 vssd1 vccd1 sky130_fd_sc_hd__tapvpwrvgnd_1
XTAP_1107 vssd1 vccd1 sky130_fd_sc_hd__tapvpwrvgnd_1
X_3069_ _3287_/A _3287_/B vssd1 vssd1 vccd1 vccd1 _3105_/A sky130_fd_sc_hd__nand2_1
XFILLER_23_431 vssd1 vssd1 vccd1 vccd1 sky130_ef_sc_hd__decap_12
XFILLER_42_239 vssd1 vssd1 vccd1 vccd1 sky130_fd_sc_hd__decap_4
XFILLER_50_294 vssd1 vssd1 vccd1 vccd1 sky130_ef_sc_hd__decap_12
XFILLER_78_604 vssd1 vssd1 vccd1 vccd1 sky130_fd_sc_hd__decap_4
XFILLER_77_169 vssd1 vssd1 vccd1 vccd1 sky130_fd_sc_hd__decap_6
XFILLER_92_117 vssd1 vssd1 vccd1 vccd1 sky130_fd_sc_hd__fill_2
XFILLER_85_180 vssd1 vssd1 vccd1 vccd1 sky130_ef_sc_hd__decap_12
XFILLER_73_353 vssd1 vssd1 vccd1 vccd1 sky130_ef_sc_hd__decap_12
XFILLER_46_589 vssd1 vssd1 vccd1 vccd1 sky130_fd_sc_hd__fill_2
XFILLER_14_442 vssd1 vssd1 vccd1 vccd1 sky130_ef_sc_hd__decap_12
XFILLER_41_294 vssd1 vssd1 vccd1 vccd1 sky130_fd_sc_hd__decap_4
X_2440_ _4644_/Q _2440_/B _2440_/C vssd1 vssd1 vccd1 vccd1 _2440_/Y sky130_fd_sc_hd__nand3b_2
X_2371_ _3629_/A _3832_/B _2371_/C _2384_/D vssd1 vssd1 vccd1 vccd1 _3185_/A sky130_fd_sc_hd__and4_4
X_4110_ _4059_/A _3072_/B _4109_/Y vssd1 vssd1 vccd1 vccd1 _4110_/X sky130_fd_sc_hd__a21o_1
X_4041_ _2351_/C _3396_/B _4040_/X _3608_/A vssd1 vssd1 vccd1 vccd1 _4054_/B sky130_fd_sc_hd__a31o_1
XFILLER_1_390 vssd1 vssd1 vccd1 vccd1 sky130_fd_sc_hd__fill_2
XFILLER_56_309 vssd1 vssd1 vccd1 vccd1 sky130_ef_sc_hd__decap_12
XFILLER_76_180 vssd1 vssd1 vccd1 vccd1 sky130_fd_sc_hd__fill_1
XFILLER_32_250 vssd1 vssd1 vccd1 vccd1 sky130_fd_sc_hd__fill_2
XFILLER_32_283 vssd1 vssd1 vccd1 vccd1 sky130_fd_sc_hd__fill_2
X_3825_ _4629_/Q _4605_/Q _3827_/S vssd1 vssd1 vccd1 vccd1 _3826_/B sky130_fd_sc_hd__mux2_1
XFILLER_20_445 vssd1 vssd1 vccd1 vccd1 sky130_ef_sc_hd__decap_12
X_3756_ _3989_/B _3755_/X _4184_/B _3632_/X vssd1 vssd1 vccd1 vccd1 _3756_/X sky130_fd_sc_hd__a2bb2o_1
X_2707_ _2938_/A1 _2702_/X _2706_/X _2697_/X _2698_/X vssd1 vssd1 vccd1 vccd1 _2848_/A
+ sky130_fd_sc_hd__o32ai_4
X_3687_ _3731_/A1 _2848_/A _3739_/B _3685_/X _3686_/Y vssd1 vssd1 vccd1 vccd1 _3687_/X
+ sky130_fd_sc_hd__a221o_2
X_2638_ _2933_/C1 _2633_/X _2635_/X _2637_/X _2984_/B1 vssd1 vssd1 vccd1 vccd1 _2638_/X
+ sky130_fd_sc_hd__a221o_4
XFILLER_99_272 vssd1 vssd1 vccd1 vccd1 sky130_fd_sc_hd__decap_8
X_2569_ _4484_/Q _4485_/Q _4486_/Q vssd1 vssd1 vccd1 vccd1 _2571_/B sky130_fd_sc_hd__o21a_1
X_4308_ _4062_/A _4307_/X _4270_/X vssd1 vssd1 vccd1 vccd1 _4308_/X sky130_fd_sc_hd__a21o_1
XFILLER_101_244 vssd1 vssd1 vccd1 vccd1 sky130_fd_sc_hd__decap_8