* NGSPICE file created from wrapped_MC14500.ext - technology: sky130B

* Black-box entry subcircuit for sky130_fd_sc_hd__fill_1 abstract view
.subckt sky130_fd_sc_hd__fill_1 VGND VNB VPB VPWR
.ends

* Black-box entry subcircuit for sky130_fd_sc_hd__and4_1 abstract view
.subckt sky130_fd_sc_hd__and4_1 A B C D VGND VNB VPB VPWR X
.ends

* Black-box entry subcircuit for sky130_fd_sc_hd__decap_4 abstract view
.subckt sky130_fd_sc_hd__decap_4 VGND VNB VPB VPWR
.ends

* Black-box entry subcircuit for sky130_fd_sc_hd__decap_3 abstract view
.subckt sky130_fd_sc_hd__decap_3 VGND VNB VPB VPWR
.ends

* Black-box entry subcircuit for sky130_fd_sc_hd__and2b_1 abstract view
.subckt sky130_fd_sc_hd__and2b_1 A_N B VGND VNB VPB VPWR X
.ends

* Black-box entry subcircuit for sky130_ef_sc_hd__decap_12 abstract view
.subckt sky130_ef_sc_hd__decap_12 VGND VNB VPB VPWR
.ends

* Black-box entry subcircuit for sky130_fd_sc_hd__decap_6 abstract view
.subckt sky130_fd_sc_hd__decap_6 VGND VNB VPB VPWR
.ends

* Black-box entry subcircuit for sky130_fd_sc_hd__buf_4 abstract view
.subckt sky130_fd_sc_hd__buf_4 A VGND VNB VPB VPWR X
.ends

* Black-box entry subcircuit for sky130_fd_sc_hd__fill_2 abstract view
.subckt sky130_fd_sc_hd__fill_2 VGND VNB VPB VPWR
.ends

* Black-box entry subcircuit for sky130_fd_sc_hd__clkbuf_2 abstract view
.subckt sky130_fd_sc_hd__clkbuf_2 A VGND VNB VPB VPWR X
.ends

* Black-box entry subcircuit for sky130_fd_sc_hd__a21oi_1 abstract view
.subckt sky130_fd_sc_hd__a21oi_1 A1 A2 B1 VGND VNB VPB VPWR Y
.ends

* Black-box entry subcircuit for sky130_fd_sc_hd__decap_8 abstract view
.subckt sky130_fd_sc_hd__decap_8 VGND VNB VPB VPWR
.ends

* Black-box entry subcircuit for sky130_fd_sc_hd__and3_1 abstract view
.subckt sky130_fd_sc_hd__and3_1 A B C VGND VNB VPB VPWR X
.ends

* Black-box entry subcircuit for sky130_fd_sc_hd__buf_2 abstract view
.subckt sky130_fd_sc_hd__buf_2 A VGND VNB VPB VPWR X
.ends

* Black-box entry subcircuit for sky130_fd_sc_hd__o21ai_1 abstract view
.subckt sky130_fd_sc_hd__o21ai_1 A1 A2 B1 VGND VNB VPB VPWR Y
.ends

* Black-box entry subcircuit for sky130_fd_sc_hd__nor2_1 abstract view
.subckt sky130_fd_sc_hd__nor2_1 A B VGND VNB VPB VPWR Y
.ends

* Black-box entry subcircuit for sky130_fd_sc_hd__and2_1 abstract view
.subckt sky130_fd_sc_hd__and2_1 A B VGND VNB VPB VPWR X
.ends

* Black-box entry subcircuit for sky130_fd_sc_hd__or2_2 abstract view
.subckt sky130_fd_sc_hd__or2_2 A B VGND VNB VPB VPWR X
.ends

* Black-box entry subcircuit for sky130_fd_sc_hd__diode_2 abstract view
.subckt sky130_fd_sc_hd__diode_2 DIODE VGND VNB VPB VPWR
.ends

* Black-box entry subcircuit for sky130_fd_sc_hd__or3b_4 abstract view
.subckt sky130_fd_sc_hd__or3b_4 A B C_N VGND VNB VPB VPWR X
.ends

* Black-box entry subcircuit for sky130_fd_sc_hd__mux2_1 abstract view
.subckt sky130_fd_sc_hd__mux2_1 A0 A1 S VGND VNB VPB VPWR X
.ends

* Black-box entry subcircuit for sky130_fd_sc_hd__conb_1 abstract view
.subckt sky130_fd_sc_hd__conb_1 VGND VNB VPB VPWR HI LO
.ends

* Black-box entry subcircuit for sky130_fd_sc_hd__inv_2 abstract view
.subckt sky130_fd_sc_hd__inv_2 A VGND VNB VPB VPWR Y
.ends

* Black-box entry subcircuit for sky130_fd_sc_hd__clkbuf_16 abstract view
.subckt sky130_fd_sc_hd__clkbuf_16 A VGND VNB VPB VPWR X
.ends

* Black-box entry subcircuit for sky130_fd_sc_hd__nand2_1 abstract view
.subckt sky130_fd_sc_hd__nand2_1 A B VGND VNB VPB VPWR Y
.ends

* Black-box entry subcircuit for sky130_fd_sc_hd__tapvpwrvgnd_1 abstract view
.subckt sky130_fd_sc_hd__tapvpwrvgnd_1 VGND VPWR
.ends

* Black-box entry subcircuit for sky130_fd_sc_hd__dfxtp_1 abstract view
.subckt sky130_fd_sc_hd__dfxtp_1 CLK D VGND VNB VPB VPWR Q
.ends

* Black-box entry subcircuit for sky130_fd_sc_hd__dfxtp_4 abstract view
.subckt sky130_fd_sc_hd__dfxtp_4 CLK D VGND VNB VPB VPWR Q
.ends

* Black-box entry subcircuit for sky130_fd_sc_hd__dfxtp_2 abstract view
.subckt sky130_fd_sc_hd__dfxtp_2 CLK D VGND VNB VPB VPWR Q
.ends

* Black-box entry subcircuit for sky130_fd_sc_hd__nor2_2 abstract view
.subckt sky130_fd_sc_hd__nor2_2 A B VGND VNB VPB VPWR Y
.ends

* Black-box entry subcircuit for sky130_fd_sc_hd__a41o_1 abstract view
.subckt sky130_fd_sc_hd__a41o_1 A1 A2 A3 A4 B1 VGND VNB VPB VPWR X
.ends

* Black-box entry subcircuit for sky130_fd_sc_hd__o21ba_1 abstract view
.subckt sky130_fd_sc_hd__o21ba_1 A1 A2 B1_N VGND VNB VPB VPWR X
.ends

* Black-box entry subcircuit for sky130_fd_sc_hd__or3_1 abstract view
.subckt sky130_fd_sc_hd__or3_1 A B C VGND VNB VPB VPWR X
.ends

* Black-box entry subcircuit for sky130_fd_sc_hd__o31a_1 abstract view
.subckt sky130_fd_sc_hd__o31a_1 A1 A2 A3 B1 VGND VNB VPB VPWR X
.ends

* Black-box entry subcircuit for sky130_fd_sc_hd__or2_1 abstract view
.subckt sky130_fd_sc_hd__or2_1 A B VGND VNB VPB VPWR X
.ends

* Black-box entry subcircuit for sky130_fd_sc_hd__o221a_1 abstract view
.subckt sky130_fd_sc_hd__o221a_1 A1 A2 B1 B2 C1 VGND VNB VPB VPWR X
.ends

* Black-box entry subcircuit for sky130_fd_sc_hd__and4b_1 abstract view
.subckt sky130_fd_sc_hd__and4b_1 A_N B C D VGND VNB VPB VPWR X
.ends

.subckt wrapped_MC14500 clk io_in[0] io_in[1] io_in[2] io_in[3] io_in[4] io_oeb io_out[0]
+ io_out[1] io_out[2] io_out[3] io_out[4] io_out[5] io_out[6] io_out[7] io_out[8]
+ rst vccd1 vssd1
XFILLER_12_21 vssd1 vssd1 vccd1 vccd1 sky130_fd_sc_hd__fill_1
X_66_ _75_/Q _74_/Q _72_/Q _67_/B vssd1 vssd1 vccd1 vccd1 _66_/X sky130_fd_sc_hd__and4_1
XFILLER_0_79 vssd1 vssd1 vccd1 vccd1 sky130_fd_sc_hd__decap_4
XFILLER_0_57 vssd1 vssd1 vccd1 vccd1 sky130_fd_sc_hd__decap_3
XFILLER_0_46 vssd1 vssd1 vccd1 vccd1 sky130_fd_sc_hd__fill_1
XFILLER_9_55 vssd1 vssd1 vccd1 vccd1 sky130_fd_sc_hd__fill_1
X_49_ _72_/Q _76_/Q vssd1 vssd1 vccd1 vccd1 _49_/X sky130_fd_sc_hd__and2b_1
XFILLER_18_53 vssd1 vssd1 vccd1 vccd1 sky130_ef_sc_hd__decap_12
XFILLER_18_97 vssd1 vssd1 vccd1 vccd1 sky130_fd_sc_hd__decap_6
XFILLER_20_65 vssd1 vssd1 vccd1 vccd1 sky130_ef_sc_hd__decap_12
XFILLER_13_3 vssd1 vssd1 vccd1 vccd1 sky130_ef_sc_hd__decap_12
Xoutput7 _58_/B vssd1 vssd1 vccd1 vccd1 io_oeb sky130_fd_sc_hd__buf_4
XFILLER_3_57 vssd1 vssd1 vccd1 vccd1 sky130_fd_sc_hd__fill_2
XFILLER_13_101 vssd1 vssd1 vccd1 vccd1 sky130_fd_sc_hd__fill_2
X_65_ _75_/Q _74_/Q _72_/Q _73_/Q vssd1 vssd1 vccd1 vccd1 _65_/X sky130_fd_sc_hd__and4_1
XFILLER_0_25 vssd1 vssd1 vccd1 vccd1 sky130_fd_sc_hd__decap_3
X_48_ _76_/Q _73_/Q vssd1 vssd1 vccd1 vccd1 _48_/X sky130_fd_sc_hd__and2b_1
XFILLER_18_65 vssd1 vssd1 vccd1 vccd1 sky130_ef_sc_hd__decap_12
XFILLER_20_77 vssd1 vssd1 vccd1 vccd1 sky130_fd_sc_hd__decap_6
Xoutput10 _58_/Y vssd1 vssd1 vccd1 vccd1 io_out[2] sky130_fd_sc_hd__clkbuf_2
Xoutput8 _64_/Y vssd1 vssd1 vccd1 vccd1 io_out[0] sky130_fd_sc_hd__buf_4
X_64_ _76_/Q _54_/C _63_/Y vssd1 vssd1 vccd1 vccd1 _64_/Y sky130_fd_sc_hd__a21oi_1
XFILLER_23_55 vssd1 vssd1 vccd1 vccd1 sky130_fd_sc_hd__fill_1
XFILLER_3_3 vssd1 vssd1 vccd1 vccd1 sky130_fd_sc_hd__decap_8
XFILLER_2_101 vssd1 vssd1 vccd1 vccd1 sky130_fd_sc_hd__fill_2
X_47_ _47_/A _62_/A _47_/C vssd1 vssd1 vccd1 vccd1 _47_/X sky130_fd_sc_hd__and3_1
XFILLER_9_57 vssd1 vssd1 vccd1 vccd1 sky130_fd_sc_hd__fill_2
XFILLER_18_77 vssd1 vssd1 vccd1 vccd1 sky130_fd_sc_hd__decap_6
XFILLER_1_91 vssd1 vssd1 vccd1 vccd1 sky130_fd_sc_hd__decap_4
Xoutput11 _76_/Q vssd1 vssd1 vccd1 vccd1 io_out[3] sky130_fd_sc_hd__buf_4
Xoutput9 _80_/X vssd1 vssd1 vccd1 vccd1 io_out[1] sky130_fd_sc_hd__clkbuf_2
XFILLER_15_45 vssd1 vssd1 vccd1 vccd1 sky130_fd_sc_hd__decap_8
XFILLER_15_67 vssd1 vssd1 vccd1 vccd1 sky130_ef_sc_hd__decap_12
XFILLER_3_37 vssd1 vssd1 vccd1 vccd1 sky130_fd_sc_hd__decap_4
X_80_ _80_/A vssd1 vssd1 vccd1 vccd1 _80_/X sky130_fd_sc_hd__buf_2
X_63_ _76_/Q _54_/C _71_/Q vssd1 vssd1 vccd1 vccd1 _63_/Y sky130_fd_sc_hd__o21ai_1
X_46_ _74_/Q _54_/C vssd1 vssd1 vccd1 vccd1 _47_/C sky130_fd_sc_hd__nor2_1
XFILLER_9_36 vssd1 vssd1 vccd1 vccd1 sky130_fd_sc_hd__decap_4
XFILLER_6_15 vssd1 vssd1 vccd1 vccd1 sky130_ef_sc_hd__decap_12
XFILLER_6_48 vssd1 vssd1 vccd1 vccd1 sky130_fd_sc_hd__decap_8
Xoutput12 _67_/X vssd1 vssd1 vccd1 vccd1 io_out[4] sky130_fd_sc_hd__buf_4
XFILLER_15_57 vssd1 vssd1 vccd1 vccd1 sky130_fd_sc_hd__fill_2
XFILLER_15_79 vssd1 vssd1 vccd1 vccd1 sky130_ef_sc_hd__decap_12
XFILLER_11_3 vssd1 vssd1 vccd1 vccd1 sky130_ef_sc_hd__decap_12
XFILLER_12_25 vssd1 vssd1 vccd1 vccd1 sky130_fd_sc_hd__decap_3
X_62_ _62_/A _62_/B vssd1 vssd1 vccd1 vccd1 _75_/D sky130_fd_sc_hd__and2_1
XFILLER_23_57 vssd1 vssd1 vccd1 vccd1 sky130_ef_sc_hd__decap_12
XFILLER_9_15 vssd1 vssd1 vccd1 vccd1 sky130_fd_sc_hd__fill_1
X_45_ _72_/Q _73_/Q vssd1 vssd1 vccd1 vccd1 _54_/C sky130_fd_sc_hd__or2_2
XFILLER_6_27 vssd1 vssd1 vccd1 vccd1 sky130_fd_sc_hd__fill_1
XANTENNA_clkbuf_0_clk_A clk vssd1 vssd1 vccd1 vccd1 sky130_fd_sc_hd__diode_2
Xoutput13 _66_/X vssd1 vssd1 vccd1 vccd1 io_out[5] sky130_fd_sc_hd__buf_4
XFILLER_3_17 vssd1 vssd1 vccd1 vccd1 sky130_fd_sc_hd__decap_4
XFILLER_12_15 vssd1 vssd1 vccd1 vccd1 sky130_fd_sc_hd__decap_6
XFILLER_12_48 vssd1 vssd1 vccd1 vccd1 sky130_fd_sc_hd__decap_4
XFILLER_5_101 vssd1 vssd1 vccd1 vccd1 sky130_fd_sc_hd__fill_2
X_61_ _62_/A _61_/B vssd1 vssd1 vccd1 vccd1 _74_/D sky130_fd_sc_hd__and2_1
XFILLER_23_69 vssd1 vssd1 vccd1 vccd1 sky130_ef_sc_hd__decap_12
XFILLER_4_60 vssd1 vssd1 vccd1 vccd1 sky130_ef_sc_hd__decap_12
XFILLER_0_29 vssd1 vssd1 vccd1 vccd1 sky130_fd_sc_hd__decap_4
XFILLER_9_49 vssd1 vssd1 vccd1 vccd1 sky130_fd_sc_hd__decap_6
X_44_ _73_/Q _44_/B _71_/Q vssd1 vssd1 vccd1 vccd1 _58_/B sky130_fd_sc_hd__or3b_4
XFILLER_1_3 vssd1 vssd1 vccd1 vccd1 sky130_fd_sc_hd__decap_4
XFILLER_20_15 vssd1 vssd1 vccd1 vccd1 sky130_ef_sc_hd__decap_12
XFILLER_15_15 vssd1 vssd1 vccd1 vccd1 sky130_ef_sc_hd__decap_12
Xoutput14 _47_/X vssd1 vssd1 vccd1 vccd1 io_out[6] sky130_fd_sc_hd__buf_4
XPHY_0 vssd1 vssd1 vccd1 vccd1 sky130_fd_sc_hd__decap_3
X_60_ _62_/A _60_/B vssd1 vssd1 vccd1 vccd1 _73_/D sky130_fd_sc_hd__and2_1
XFILLER_23_15 vssd1 vssd1 vccd1 vccd1 sky130_ef_sc_hd__decap_12
XFILLER_4_72 vssd1 vssd1 vccd1 vccd1 sky130_ef_sc_hd__decap_12
XFILLER_0_19 vssd1 vssd1 vccd1 vccd1 sky130_fd_sc_hd__fill_2
X_43_ _71_/Q _52_/C _43_/S vssd1 vssd1 vccd1 vccd1 _71_/D sky130_fd_sc_hd__mux2_1
XFILLER_18_15 vssd1 vssd1 vccd1 vccd1 sky130_ef_sc_hd__decap_12
XFILLER_24_91 vssd1 vssd1 vccd1 vccd1 sky130_fd_sc_hd__decap_6
XFILLER_20_27 vssd1 vssd1 vccd1 vccd1 sky130_fd_sc_hd__fill_1
XFILLER_19_101 vssd1 vssd1 vccd1 vccd1 sky130_fd_sc_hd__fill_2
XFILLER_6_29 vssd1 vssd1 vccd1 vccd1 sky130_fd_sc_hd__fill_2
XFILLER_15_27 vssd1 vssd1 vccd1 vccd1 sky130_fd_sc_hd__fill_1
Xoutput15 _65_/X vssd1 vssd1 vccd1 vccd1 io_out[7] sky130_fd_sc_hd__buf_4
XFILLER_21_81 vssd1 vssd1 vccd1 vccd1 sky130_ef_sc_hd__decap_12
XPHY_1 vssd1 vssd1 vccd1 vccd1 sky130_fd_sc_hd__decap_3
XFILLER_16_81 vssd1 vssd1 vccd1 vccd1 sky130_fd_sc_hd__decap_3
XANTENNA_input6_A rst vssd1 vssd1 vccd1 vccd1 sky130_fd_sc_hd__diode_2
Xwrapped_MC14500_16 vssd1 vssd1 vccd1 vccd1 wrapped_MC14500_16/HI io_out[8] sky130_fd_sc_hd__conb_1
XFILLER_4_51 vssd1 vssd1 vccd1 vccd1 sky130_fd_sc_hd__decap_4
XFILLER_23_27 vssd1 vssd1 vccd1 vccd1 sky130_ef_sc_hd__decap_12
X_42_ _44_/B _54_/B vssd1 vssd1 vccd1 vccd1 _43_/S sky130_fd_sc_hd__nor2_1
XFILLER_18_27 vssd1 vssd1 vccd1 vccd1 sky130_fd_sc_hd__fill_1
XFILLER_10_83 vssd1 vssd1 vccd1 vccd1 sky130_fd_sc_hd__fill_1
X_68__3 _75_/CLK vssd1 vssd1 vccd1 vccd1 _76_/CLK sky130_fd_sc_hd__inv_2
XFILLER_19_81 vssd1 vssd1 vccd1 vccd1 sky130_fd_sc_hd__decap_8
XFILLER_21_93 vssd1 vssd1 vccd1 vccd1 sky130_fd_sc_hd__decap_8
XPHY_2 vssd1 vssd1 vccd1 vccd1 sky130_fd_sc_hd__decap_3
Xclkbuf_0_clk clk vssd1 vssd1 vccd1 vccd1 clkbuf_0_clk/X sky130_fd_sc_hd__clkbuf_16
XFILLER_7_51 vssd1 vssd1 vccd1 vccd1 sky130_fd_sc_hd__decap_4
XFILLER_7_62 vssd1 vssd1 vccd1 vccd1 sky130_ef_sc_hd__decap_12
XFILLER_12_29 vssd1 vssd1 vccd1 vccd1 sky130_ef_sc_hd__decap_12
XFILLER_4_85 vssd1 vssd1 vccd1 vccd1 sky130_ef_sc_hd__decap_12
XFILLER_23_39 vssd1 vssd1 vccd1 vccd1 sky130_ef_sc_hd__decap_12
X_41_ _72_/Q _73_/Q vssd1 vssd1 vccd1 vccd1 _54_/B sky130_fd_sc_hd__nand2_1
XFILLER_24_82 vssd1 vssd1 vccd1 vccd1 sky130_fd_sc_hd__fill_2
XFILLER_1_86 vssd1 vssd1 vccd1 vccd1 sky130_fd_sc_hd__decap_3
XFILLER_20_29 vssd1 vssd1 vccd1 vccd1 sky130_ef_sc_hd__decap_12
XFILLER_10_51 vssd1 vssd1 vccd1 vccd1 sky130_fd_sc_hd__decap_4
XFILLER_19_93 vssd1 vssd1 vccd1 vccd1 sky130_fd_sc_hd__decap_4
X_70__5 _75_/CLK vssd1 vssd1 vccd1 vccd1 _78_/CLK sky130_fd_sc_hd__inv_2
XPHY_3 vssd1 vssd1 vccd1 vccd1 sky130_fd_sc_hd__decap_3
XFILLER_7_74 vssd1 vssd1 vccd1 vccd1 sky130_ef_sc_hd__decap_12
XFILLER_16_50 vssd1 vssd1 vccd1 vccd1 sky130_fd_sc_hd__decap_4
XFILLER_4_97 vssd1 vssd1 vccd1 vccd1 sky130_fd_sc_hd__decap_6
X_40_ _52_/C _77_/Q _40_/S vssd1 vssd1 vccd1 vccd1 _77_/D sky130_fd_sc_hd__mux2_1
XFILLER_18_29 vssd1 vssd1 vccd1 vccd1 sky130_ef_sc_hd__decap_12
XFILLER_1_7 vssd1 vssd1 vccd1 vccd1 sky130_fd_sc_hd__fill_1
XFILLER_10_85 vssd1 vssd1 vccd1 vccd1 sky130_ef_sc_hd__decap_12
XFILLER_21_51 vssd1 vssd1 vccd1 vccd1 sky130_fd_sc_hd__decap_4
XPHY_4 vssd1 vssd1 vccd1 vccd1 sky130_fd_sc_hd__decap_3
XFILLER_7_86 vssd1 vssd1 vccd1 vccd1 sky130_ef_sc_hd__decap_12
XANTENNA_input4_A io_in[3] vssd1 vssd1 vccd1 vccd1 sky130_fd_sc_hd__diode_2
XFILLER_1_66 vssd1 vssd1 vccd1 vccd1 sky130_ef_sc_hd__decap_12
XFILLER_10_97 vssd1 vssd1 vccd1 vccd1 sky130_fd_sc_hd__decap_6
XFILLER_19_51 vssd1 vssd1 vccd1 vccd1 sky130_fd_sc_hd__decap_4
XFILLER_18_3 vssd1 vssd1 vccd1 vccd1 sky130_ef_sc_hd__decap_12
XPHY_5 vssd1 vssd1 vccd1 vccd1 sky130_fd_sc_hd__decap_3
XFILLER_7_98 vssd1 vssd1 vccd1 vccd1 sky130_fd_sc_hd__decap_4
XFILLER_16_85 vssd1 vssd1 vccd1 vccd1 sky130_ef_sc_hd__decap_12
XFILLER_4_44 vssd1 vssd1 vccd1 vccd1 sky130_fd_sc_hd__decap_4
XFILLER_24_85 vssd1 vssd1 vccd1 vccd1 sky130_fd_sc_hd__fill_2
XFILLER_24_41 vssd1 vssd1 vccd1 vccd1 sky130_ef_sc_hd__decap_12
XFILLER_1_12 vssd1 vssd1 vccd1 vccd1 sky130_fd_sc_hd__decap_4
XFILLER_1_78 vssd1 vssd1 vccd1 vccd1 sky130_fd_sc_hd__decap_8
XFILLER_10_65 vssd1 vssd1 vccd1 vccd1 sky130_ef_sc_hd__decap_12
XPHY_6 vssd1 vssd1 vccd1 vccd1 sky130_fd_sc_hd__decap_3
XFILLER_7_55 vssd1 vssd1 vccd1 vccd1 sky130_fd_sc_hd__fill_1
XFILLER_21_101 vssd1 vssd1 vccd1 vccd1 sky130_fd_sc_hd__fill_2
XFILLER_12_101 vssd1 vssd1 vccd1 vccd1 sky130_fd_sc_hd__fill_2
XFILLER_16_97 vssd1 vssd1 vccd1 vccd1 sky130_fd_sc_hd__decap_6
XFILLER_4_23 vssd1 vssd1 vccd1 vccd1 sky130_fd_sc_hd__decap_4
XFILLER_8_3 vssd1 vssd1 vccd1 vccd1 sky130_ef_sc_hd__decap_12
XFILLER_13_54 vssd1 vssd1 vccd1 vccd1 sky130_fd_sc_hd__fill_2
XFILLER_13_65 vssd1 vssd1 vccd1 vccd1 sky130_ef_sc_hd__decap_12
XFILLER_24_53 vssd1 vssd1 vccd1 vccd1 sky130_fd_sc_hd__decap_3
XFILLER_1_57 vssd1 vssd1 vccd1 vccd1 sky130_fd_sc_hd__fill_2
Xinput1 io_in[0] vssd1 vssd1 vccd1 vccd1 _59_/B sky130_fd_sc_hd__clkbuf_2
XFILLER_10_55 vssd1 vssd1 vccd1 vccd1 sky130_fd_sc_hd__fill_1
XFILLER_10_77 vssd1 vssd1 vccd1 vccd1 sky130_fd_sc_hd__decap_6
XPHY_7 vssd1 vssd1 vccd1 vccd1 sky130_fd_sc_hd__decap_3
XFILLER_23_3 vssd1 vssd1 vccd1 vccd1 sky130_ef_sc_hd__decap_12
XFILLER_4_35 vssd1 vssd1 vccd1 vccd1 sky130_fd_sc_hd__decap_6
XFILLER_1_101 vssd1 vssd1 vccd1 vccd1 sky130_fd_sc_hd__fill_2
XFILLER_13_77 vssd1 vssd1 vccd1 vccd1 sky130_ef_sc_hd__decap_12
XANTENNA_input2_A io_in[1] vssd1 vssd1 vccd1 vccd1 sky130_fd_sc_hd__diode_2
XFILLER_1_36 vssd1 vssd1 vccd1 vccd1 sky130_ef_sc_hd__decap_12
Xinput2 io_in[1] vssd1 vssd1 vccd1 vccd1 _60_/B sky130_fd_sc_hd__clkbuf_2
XTAP_80 vssd1 vccd1 sky130_fd_sc_hd__tapvpwrvgnd_1
XFILLER_21_55 vssd1 vssd1 vccd1 vccd1 sky130_fd_sc_hd__fill_1
XPHY_8 vssd1 vssd1 vccd1 vccd1 sky130_fd_sc_hd__decap_3
XFILLER_7_57 vssd1 vssd1 vccd1 vccd1 sky130_fd_sc_hd__fill_2
XFILLER_16_3 vssd1 vssd1 vccd1 vccd1 sky130_ef_sc_hd__decap_12
XFILLER_16_33 vssd1 vssd1 vccd1 vccd1 sky130_fd_sc_hd__fill_1
XFILLER_13_89 vssd1 vssd1 vccd1 vccd1 sky130_ef_sc_hd__decap_12
X_36__1 _80_/A vssd1 vssd1 vccd1 vccd1 _71_/CLK sky130_fd_sc_hd__inv_2
XFILLER_24_77 vssd1 vssd1 vccd1 vccd1 sky130_fd_sc_hd__decap_3
XFILLER_1_48 vssd1 vssd1 vccd1 vccd1 sky130_fd_sc_hd__decap_8
XTAP_70 vssd1 vccd1 sky130_fd_sc_hd__tapvpwrvgnd_1
Xinput3 io_in[2] vssd1 vssd1 vccd1 vccd1 _61_/B sky130_fd_sc_hd__clkbuf_2
X_78_ _78_/CLK _78_/D vssd1 vssd1 vccd1 vccd1 _78_/Q sky130_fd_sc_hd__dfxtp_1
XTAP_81 vssd1 vccd1 sky130_fd_sc_hd__tapvpwrvgnd_1
XFILLER_19_55 vssd1 vssd1 vccd1 vccd1 sky130_fd_sc_hd__fill_1
XFILLER_24_101 vssd1 vssd1 vccd1 vccd1 sky130_fd_sc_hd__fill_2
XPHY_9 vssd1 vssd1 vccd1 vccd1 sky130_fd_sc_hd__decap_3
XFILLER_4_15 vssd1 vssd1 vccd1 vccd1 sky130_fd_sc_hd__decap_4
XFILLER_13_57 vssd1 vssd1 vccd1 vccd1 sky130_fd_sc_hd__fill_2
X_36__2 _80_/A vssd1 vssd1 vccd1 vccd1 _58_/A sky130_fd_sc_hd__inv_2
XFILLER_6_3 vssd1 vssd1 vccd1 vccd1 sky130_ef_sc_hd__decap_12
XTAP_60 vssd1 vccd1 sky130_fd_sc_hd__tapvpwrvgnd_1
X_77_ _77_/CLK _77_/D vssd1 vssd1 vccd1 vccd1 _77_/Q sky130_fd_sc_hd__dfxtp_1
XTAP_71 vssd1 vccd1 sky130_fd_sc_hd__tapvpwrvgnd_1
XTAP_82 vssd1 vccd1 sky130_fd_sc_hd__tapvpwrvgnd_1
Xinput4 io_in[3] vssd1 vssd1 vccd1 vccd1 _62_/B sky130_fd_sc_hd__clkbuf_2
XFILLER_19_89 vssd1 vssd1 vccd1 vccd1 sky130_fd_sc_hd__fill_2
XFILLER_21_57 vssd1 vssd1 vccd1 vccd1 sky130_ef_sc_hd__decap_12
XFILLER_7_15 vssd1 vssd1 vccd1 vccd1 sky130_ef_sc_hd__decap_12
XFILLER_16_57 vssd1 vssd1 vccd1 vccd1 sky130_ef_sc_hd__decap_12
XFILLER_21_3 vssd1 vssd1 vccd1 vccd1 sky130_ef_sc_hd__decap_12
XFILLER_4_27 vssd1 vssd1 vccd1 vccd1 sky130_fd_sc_hd__fill_1
XFILLER_13_47 vssd1 vssd1 vccd1 vccd1 sky130_fd_sc_hd__fill_1
XFILLER_24_57 vssd1 vssd1 vccd1 vccd1 sky130_ef_sc_hd__decap_12
Xinput5 io_in[4] vssd1 vssd1 vccd1 vccd1 _52_/C sky130_fd_sc_hd__clkbuf_2
X_76_ _76_/CLK _76_/D vssd1 vssd1 vccd1 vccd1 _76_/Q sky130_fd_sc_hd__dfxtp_4
XTAP_83 vssd1 vccd1 sky130_fd_sc_hd__tapvpwrvgnd_1
XTAP_50 vssd1 vccd1 sky130_fd_sc_hd__tapvpwrvgnd_1
XTAP_61 vssd1 vccd1 sky130_fd_sc_hd__tapvpwrvgnd_1
XFILLER_10_15 vssd1 vssd1 vccd1 vccd1 sky130_fd_sc_hd__fill_2
XFILLER_10_26 vssd1 vssd1 vccd1 vccd1 sky130_fd_sc_hd__fill_2
XTAP_72 vssd1 vccd1 sky130_fd_sc_hd__tapvpwrvgnd_1
XFILLER_19_57 vssd1 vssd1 vccd1 vccd1 sky130_ef_sc_hd__decap_12
XFILLER_2_82 vssd1 vssd1 vccd1 vccd1 sky130_fd_sc_hd__fill_2
X_59_ _62_/A _59_/B vssd1 vssd1 vccd1 vccd1 _72_/D sky130_fd_sc_hd__and2_1
XFILLER_21_69 vssd1 vssd1 vccd1 vccd1 sky130_ef_sc_hd__decap_12
XFILLER_7_27 vssd1 vssd1 vccd1 vccd1 sky130_ef_sc_hd__decap_12
XFILLER_11_91 vssd1 vssd1 vccd1 vccd1 sky130_ef_sc_hd__decap_12
XFILLER_16_69 vssd1 vssd1 vccd1 vccd1 sky130_ef_sc_hd__decap_12
XFILLER_14_3 vssd1 vssd1 vccd1 vccd1 sky130_ef_sc_hd__decap_12
XFILLER_13_15 vssd1 vssd1 vccd1 vccd1 sky130_ef_sc_hd__decap_12
XFILLER_24_69 vssd1 vssd1 vccd1 vccd1 sky130_fd_sc_hd__decap_8
Xinput6 rst vssd1 vssd1 vccd1 vccd1 _57_/B1 sky130_fd_sc_hd__clkbuf_2
XTAP_84 vssd1 vccd1 sky130_fd_sc_hd__tapvpwrvgnd_1
XTAP_51 vssd1 vccd1 sky130_fd_sc_hd__tapvpwrvgnd_1
XTAP_62 vssd1 vccd1 sky130_fd_sc_hd__tapvpwrvgnd_1
XTAP_73 vssd1 vccd1 sky130_fd_sc_hd__tapvpwrvgnd_1
X_75_ _75_/CLK _75_/D vssd1 vssd1 vccd1 vccd1 _75_/Q sky130_fd_sc_hd__dfxtp_2
XFILLER_19_69 vssd1 vssd1 vccd1 vccd1 sky130_ef_sc_hd__decap_12
X_58_ _58_/A _58_/B vssd1 vssd1 vccd1 vccd1 _58_/Y sky130_fd_sc_hd__nor2_2
XFILLER_21_15 vssd1 vssd1 vccd1 vccd1 sky130_ef_sc_hd__decap_12
XFILLER_7_39 vssd1 vssd1 vccd1 vccd1 sky130_ef_sc_hd__decap_12
XFILLER_16_15 vssd1 vssd1 vccd1 vccd1 sky130_ef_sc_hd__decap_12
XFILLER_8_60 vssd1 vssd1 vccd1 vccd1 sky130_ef_sc_hd__decap_12
XFILLER_4_29 vssd1 vssd1 vccd1 vccd1 sky130_fd_sc_hd__fill_2
XFILLER_13_27 vssd1 vssd1 vccd1 vccd1 sky130_ef_sc_hd__decap_12
XFILLER_24_15 vssd1 vssd1 vccd1 vccd1 sky130_ef_sc_hd__decap_12
XTAP_85 vssd1 vccd1 sky130_fd_sc_hd__tapvpwrvgnd_1
XTAP_52 vssd1 vccd1 sky130_fd_sc_hd__tapvpwrvgnd_1
XTAP_63 vssd1 vccd1 sky130_fd_sc_hd__tapvpwrvgnd_1
X_74_ _75_/CLK _74_/D vssd1 vssd1 vccd1 vccd1 _74_/Q sky130_fd_sc_hd__dfxtp_2
XTAP_74 vssd1 vccd1 sky130_fd_sc_hd__tapvpwrvgnd_1
XFILLER_4_3 vssd1 vssd1 vccd1 vccd1 sky130_ef_sc_hd__decap_12
XFILLER_19_15 vssd1 vssd1 vccd1 vccd1 sky130_ef_sc_hd__decap_12
XFILLER_2_51 vssd1 vssd1 vccd1 vccd1 sky130_fd_sc_hd__decap_4
XFILLER_21_27 vssd1 vssd1 vccd1 vccd1 sky130_ef_sc_hd__decap_12
X_57_ _75_/Q _74_/Q _35_/Y _37_/X _57_/B1 vssd1 vssd1 vccd1 vccd1 _78_/D sky130_fd_sc_hd__a41o_1
XFILLER_16_27 vssd1 vssd1 vccd1 vccd1 sky130_fd_sc_hd__fill_1
XFILLER_8_72 vssd1 vssd1 vccd1 vccd1 sky130_ef_sc_hd__decap_12
XFILLER_4_19 vssd1 vssd1 vccd1 vccd1 sky130_fd_sc_hd__fill_1
XFILLER_13_39 vssd1 vssd1 vccd1 vccd1 sky130_fd_sc_hd__decap_8
XFILLER_24_27 vssd1 vssd1 vccd1 vccd1 sky130_fd_sc_hd__fill_1
XTAP_86 vssd1 vccd1 sky130_fd_sc_hd__tapvpwrvgnd_1
XTAP_53 vssd1 vccd1 sky130_fd_sc_hd__tapvpwrvgnd_1
X_73_ _80_/A _73_/D vssd1 vssd1 vccd1 vccd1 _73_/Q sky130_fd_sc_hd__dfxtp_2
XTAP_64 vssd1 vccd1 sky130_fd_sc_hd__tapvpwrvgnd_1
XFILLER_14_82 vssd1 vssd1 vccd1 vccd1 sky130_fd_sc_hd__fill_2
XTAP_75 vssd1 vccd1 sky130_fd_sc_hd__tapvpwrvgnd_1
XFILLER_10_29 vssd1 vssd1 vccd1 vccd1 sky130_fd_sc_hd__fill_2
XFILLER_19_27 vssd1 vssd1 vccd1 vccd1 sky130_ef_sc_hd__decap_12
XFILLER_21_39 vssd1 vssd1 vccd1 vccd1 sky130_ef_sc_hd__decap_12
XFILLER_2_85 vssd1 vssd1 vccd1 vccd1 sky130_ef_sc_hd__decap_12
XFILLER_2_74 vssd1 vssd1 vccd1 vccd1 sky130_fd_sc_hd__decap_8
XFILLER_2_63 vssd1 vssd1 vccd1 vccd1 sky130_fd_sc_hd__decap_4
XFILLER_2_41 vssd1 vssd1 vccd1 vccd1 sky130_fd_sc_hd__fill_1
X_56_ _53_/X _55_/X _57_/B1 vssd1 vssd1 vccd1 vccd1 _76_/D sky130_fd_sc_hd__o21ba_1
X_39_ _72_/Q _67_/B _44_/B vssd1 vssd1 vccd1 vccd1 _40_/S sky130_fd_sc_hd__or3_1
Xclkbuf_1_0__f_clk clkbuf_0_clk/X vssd1 vssd1 vccd1 vccd1 _80_/A sky130_fd_sc_hd__clkbuf_16
XFILLER_7_102 vssd1 vssd1 vccd1 vccd1 sky130_fd_sc_hd__fill_1
XFILLER_12_3 vssd1 vssd1 vccd1 vccd1 sky130_ef_sc_hd__decap_12
XTAP_87 vssd1 vccd1 sky130_fd_sc_hd__tapvpwrvgnd_1
XTAP_54 vssd1 vccd1 sky130_fd_sc_hd__tapvpwrvgnd_1
X_72_ _80_/A _72_/D vssd1 vssd1 vccd1 vccd1 _72_/Q sky130_fd_sc_hd__dfxtp_2
XTAP_65 vssd1 vccd1 sky130_fd_sc_hd__tapvpwrvgnd_1
XTAP_76 vssd1 vccd1 sky130_fd_sc_hd__tapvpwrvgnd_1
XFILLER_10_19 vssd1 vssd1 vccd1 vccd1 sky130_fd_sc_hd__decap_4
XFILLER_19_39 vssd1 vssd1 vccd1 vccd1 sky130_ef_sc_hd__decap_12
XFILLER_2_97 vssd1 vssd1 vccd1 vccd1 sky130_fd_sc_hd__fill_1
X_55_ _75_/Q _47_/C _54_/X _76_/Q vssd1 vssd1 vccd1 vccd1 _55_/X sky130_fd_sc_hd__o31a_1
XFILLER_11_40 vssd1 vssd1 vccd1 vccd1 sky130_fd_sc_hd__decap_6
X_69__4 _75_/CLK vssd1 vssd1 vccd1 vccd1 _77_/CLK sky130_fd_sc_hd__inv_2
X_38_ _47_/A _74_/Q vssd1 vssd1 vccd1 vccd1 _44_/B sky130_fd_sc_hd__or2_1
XFILLER_16_29 vssd1 vssd1 vccd1 vccd1 sky130_fd_sc_hd__decap_4
XFILLER_22_83 vssd1 vssd1 vccd1 vccd1 sky130_fd_sc_hd__fill_1
XFILLER_8_85 vssd1 vssd1 vccd1 vccd1 sky130_ef_sc_hd__decap_12
XFILLER_17_72 vssd1 vssd1 vccd1 vccd1 sky130_ef_sc_hd__decap_12
XFILLER_5_64 vssd1 vssd1 vccd1 vccd1 sky130_fd_sc_hd__decap_8
XFILLER_24_29 vssd1 vssd1 vccd1 vccd1 sky130_ef_sc_hd__decap_12
X_71_ _71_/CLK _71_/D vssd1 vssd1 vccd1 vccd1 _71_/Q sky130_fd_sc_hd__dfxtp_1
XTAP_88 vssd1 vccd1 sky130_fd_sc_hd__tapvpwrvgnd_1
XTAP_55 vssd1 vccd1 sky130_fd_sc_hd__tapvpwrvgnd_1
XTAP_66 vssd1 vccd1 sky130_fd_sc_hd__tapvpwrvgnd_1
XTAP_77 vssd1 vccd1 sky130_fd_sc_hd__tapvpwrvgnd_1
X_54_ _74_/Q _54_/B _54_/C vssd1 vssd1 vccd1 vccd1 _54_/X sky130_fd_sc_hd__and3_1
XFILLER_2_3 vssd1 vssd1 vccd1 vccd1 sky130_fd_sc_hd__decap_8
X_37_ _72_/Q _73_/Q vssd1 vssd1 vccd1 vccd1 _37_/X sky130_fd_sc_hd__and2b_1
XFILLER_8_97 vssd1 vssd1 vccd1 vccd1 sky130_fd_sc_hd__decap_6
XFILLER_17_62 vssd1 vssd1 vccd1 vccd1 sky130_fd_sc_hd__decap_4
XFILLER_17_84 vssd1 vssd1 vccd1 vccd1 sky130_ef_sc_hd__decap_12
XFILLER_5_43 vssd1 vssd1 vccd1 vccd1 sky130_fd_sc_hd__decap_6
XFILLER_5_54 vssd1 vssd1 vccd1 vccd1 sky130_fd_sc_hd__fill_2
XFILLER_14_41 vssd1 vssd1 vccd1 vccd1 sky130_ef_sc_hd__decap_12
XFILLER_14_74 vssd1 vssd1 vccd1 vccd1 sky130_fd_sc_hd__decap_8
XFILLER_14_85 vssd1 vssd1 vccd1 vccd1 sky130_ef_sc_hd__decap_12
XTAP_89 vssd1 vccd1 sky130_fd_sc_hd__tapvpwrvgnd_1
XTAP_56 vssd1 vccd1 sky130_fd_sc_hd__tapvpwrvgnd_1
XTAP_67 vssd1 vccd1 sky130_fd_sc_hd__tapvpwrvgnd_1
XTAP_78 vssd1 vccd1 sky130_fd_sc_hd__tapvpwrvgnd_1
X_53_ _74_/Q _54_/C _51_/X _52_/X _47_/A vssd1 vssd1 vccd1 vccd1 _53_/X sky130_fd_sc_hd__o221a_1
XPHY_40 vssd1 vssd1 vccd1 vccd1 sky130_fd_sc_hd__decap_3
XFILLER_22_85 vssd1 vssd1 vccd1 vccd1 sky130_ef_sc_hd__decap_12
XFILLER_22_41 vssd1 vssd1 vccd1 vccd1 sky130_ef_sc_hd__decap_12
XFILLER_17_96 vssd1 vssd1 vccd1 vccd1 sky130_fd_sc_hd__decap_6
XFILLER_5_77 vssd1 vssd1 vccd1 vccd1 sky130_ef_sc_hd__decap_12
XFILLER_10_3 vssd1 vssd1 vccd1 vccd1 sky130_ef_sc_hd__decap_12
XFILLER_14_53 vssd1 vssd1 vccd1 vccd1 sky130_fd_sc_hd__fill_2
XFILLER_14_97 vssd1 vssd1 vccd1 vccd1 sky130_fd_sc_hd__decap_6
XTAP_57 vssd1 vccd1 sky130_fd_sc_hd__tapvpwrvgnd_1
XTAP_68 vssd1 vccd1 sky130_fd_sc_hd__tapvpwrvgnd_1
XTAP_79 vssd1 vccd1 sky130_fd_sc_hd__tapvpwrvgnd_1
X_52_ _48_/X _72_/Q _52_/C _77_/Q vssd1 vssd1 vccd1 vccd1 _52_/X sky130_fd_sc_hd__and4b_1
XPHY_30 vssd1 vssd1 vccd1 vccd1 sky130_fd_sc_hd__decap_3
XPHY_41 vssd1 vssd1 vccd1 vccd1 sky130_fd_sc_hd__decap_3
XFILLER_11_54 vssd1 vssd1 vccd1 vccd1 sky130_fd_sc_hd__fill_2
X_35_ _76_/Q vssd1 vssd1 vccd1 vccd1 _35_/Y sky130_fd_sc_hd__inv_2
XFILLER_22_53 vssd1 vssd1 vccd1 vccd1 sky130_ef_sc_hd__decap_12
XFILLER_22_97 vssd1 vssd1 vccd1 vccd1 sky130_fd_sc_hd__decap_6
XFILLER_8_55 vssd1 vssd1 vccd1 vccd1 sky130_fd_sc_hd__fill_2
XFILLER_0_101 vssd1 vssd1 vccd1 vccd1 sky130_fd_sc_hd__fill_2
XFILLER_5_23 vssd1 vssd1 vccd1 vccd1 sky130_fd_sc_hd__decap_3
XFILLER_5_89 vssd1 vssd1 vccd1 vccd1 sky130_ef_sc_hd__decap_12
XTAP_58 vssd1 vccd1 sky130_fd_sc_hd__tapvpwrvgnd_1
XTAP_69 vssd1 vccd1 sky130_fd_sc_hd__tapvpwrvgnd_1
XPHY_42 vssd1 vssd1 vccd1 vccd1 sky130_fd_sc_hd__decap_3
XPHY_20 vssd1 vssd1 vccd1 vccd1 sky130_fd_sc_hd__decap_3
XPHY_31 vssd1 vssd1 vccd1 vccd1 sky130_fd_sc_hd__decap_3
XFILLER_2_24 vssd1 vssd1 vccd1 vccd1 sky130_fd_sc_hd__decap_4
X_51_ _74_/Q _37_/X _48_/X _49_/X _50_/Y vssd1 vssd1 vccd1 vccd1 _51_/X sky130_fd_sc_hd__o221a_1
X_34_ _78_/Q vssd1 vssd1 vccd1 vccd1 _62_/A sky130_fd_sc_hd__inv_2
XFILLER_22_65 vssd1 vssd1 vccd1 vccd1 sky130_ef_sc_hd__decap_12
XFILLER_0_3 vssd1 vssd1 vccd1 vccd1 sky130_fd_sc_hd__fill_2
XFILLER_17_54 vssd1 vssd1 vccd1 vccd1 sky130_fd_sc_hd__fill_2
XFILLER_5_57 vssd1 vssd1 vccd1 vccd1 sky130_fd_sc_hd__fill_2
XTAP_59 vssd1 vccd1 sky130_fd_sc_hd__tapvpwrvgnd_1
XFILLER_14_66 vssd1 vssd1 vccd1 vccd1 sky130_fd_sc_hd__decap_3
XPHY_43 vssd1 vssd1 vccd1 vccd1 sky130_fd_sc_hd__decap_3
XPHY_10 vssd1 vssd1 vccd1 vccd1 sky130_fd_sc_hd__decap_3
XPHY_21 vssd1 vssd1 vccd1 vccd1 sky130_fd_sc_hd__decap_3
XPHY_32 vssd1 vssd1 vccd1 vccd1 sky130_fd_sc_hd__decap_3
X_50_ _77_/Q _52_/C vssd1 vssd1 vccd1 vccd1 _50_/Y sky130_fd_sc_hd__nand2_1
XFILLER_23_101 vssd1 vssd1 vccd1 vccd1 sky130_fd_sc_hd__fill_2
XFILLER_11_67 vssd1 vssd1 vccd1 vccd1 sky130_ef_sc_hd__decap_12
X_33_ _73_/Q vssd1 vssd1 vccd1 vccd1 _67_/B sky130_fd_sc_hd__inv_2
XFILLER_22_77 vssd1 vssd1 vccd1 vccd1 sky130_fd_sc_hd__decap_6
XFILLER_17_66 vssd1 vssd1 vccd1 vccd1 sky130_fd_sc_hd__fill_1
Xclkbuf_1_1__f_clk clkbuf_0_clk/X vssd1 vssd1 vccd1 vccd1 _75_/CLK sky130_fd_sc_hd__clkbuf_16
XANTENNA_input5_A io_in[4] vssd1 vssd1 vccd1 vccd1 sky130_fd_sc_hd__diode_2
XPHY_44 vssd1 vssd1 vccd1 vccd1 sky130_fd_sc_hd__decap_3
XPHY_11 vssd1 vssd1 vccd1 vccd1 sky130_fd_sc_hd__decap_3
XPHY_22 vssd1 vssd1 vccd1 vccd1 sky130_fd_sc_hd__decap_3
XPHY_33 vssd1 vssd1 vccd1 vccd1 sky130_fd_sc_hd__decap_3
XFILLER_2_37 vssd1 vssd1 vccd1 vccd1 sky130_fd_sc_hd__decap_4
XFILLER_2_15 vssd1 vssd1 vccd1 vccd1 sky130_fd_sc_hd__decap_4
XFILLER_11_57 vssd1 vssd1 vccd1 vccd1 sky130_fd_sc_hd__fill_2
XFILLER_11_79 vssd1 vssd1 vccd1 vccd1 sky130_ef_sc_hd__decap_12
X_32_ _75_/Q vssd1 vssd1 vccd1 vccd1 _47_/A sky130_fd_sc_hd__inv_2
XFILLER_8_47 vssd1 vssd1 vccd1 vccd1 sky130_fd_sc_hd__decap_8
XFILLER_19_3 vssd1 vssd1 vccd1 vccd1 sky130_ef_sc_hd__decap_12
XFILLER_5_15 vssd1 vssd1 vccd1 vccd1 sky130_fd_sc_hd__decap_8
XPHY_12 vssd1 vssd1 vccd1 vccd1 sky130_fd_sc_hd__decap_3
XPHY_45 vssd1 vssd1 vccd1 vccd1 sky130_fd_sc_hd__decap_3
XPHY_23 vssd1 vssd1 vccd1 vccd1 sky130_fd_sc_hd__decap_3
XPHY_34 vssd1 vssd1 vccd1 vccd1 sky130_fd_sc_hd__decap_3
XFILLER_8_15 vssd1 vssd1 vccd1 vccd1 sky130_ef_sc_hd__decap_12
XFILLER_17_46 vssd1 vssd1 vccd1 vccd1 sky130_fd_sc_hd__decap_8
XFILLER_17_57 vssd1 vssd1 vccd1 vccd1 sky130_fd_sc_hd__fill_2
XFILLER_0_93 vssd1 vssd1 vccd1 vccd1 sky130_fd_sc_hd__decap_4
XFILLER_14_58 vssd1 vssd1 vccd1 vccd1 sky130_fd_sc_hd__decap_8
XFILLER_6_81 vssd1 vssd1 vccd1 vccd1 sky130_fd_sc_hd__decap_3
XPHY_46 vssd1 vssd1 vccd1 vccd1 sky130_fd_sc_hd__decap_3
XPHY_13 vssd1 vssd1 vccd1 vccd1 sky130_fd_sc_hd__decap_3
XFILLER_9_3 vssd1 vssd1 vccd1 vccd1 sky130_ef_sc_hd__decap_12
XPHY_24 vssd1 vssd1 vccd1 vccd1 sky130_fd_sc_hd__decap_3
XPHY_35 vssd1 vssd1 vccd1 vccd1 sky130_fd_sc_hd__decap_3
XFILLER_11_15 vssd1 vssd1 vccd1 vccd1 sky130_fd_sc_hd__decap_6
XFILLER_3_71 vssd1 vssd1 vccd1 vccd1 sky130_ef_sc_hd__decap_12
XFILLER_8_27 vssd1 vssd1 vccd1 vccd1 sky130_fd_sc_hd__fill_1
XFILLER_24_3 vssd1 vssd1 vccd1 vccd1 sky130_ef_sc_hd__decap_12
XFILLER_0_83 vssd1 vssd1 vccd1 vccd1 sky130_fd_sc_hd__fill_1
XFILLER_0_72 vssd1 vssd1 vccd1 vccd1 sky130_fd_sc_hd__fill_1
XFILLER_14_15 vssd1 vssd1 vccd1 vccd1 sky130_ef_sc_hd__decap_12
XFILLER_6_93 vssd1 vssd1 vccd1 vccd1 sky130_fd_sc_hd__decap_4
XPHY_47 vssd1 vssd1 vccd1 vccd1 sky130_fd_sc_hd__decap_3
XPHY_14 vssd1 vssd1 vccd1 vccd1 sky130_fd_sc_hd__decap_3
XPHY_25 vssd1 vssd1 vccd1 vccd1 sky130_fd_sc_hd__decap_3
XPHY_36 vssd1 vssd1 vccd1 vccd1 sky130_fd_sc_hd__decap_3
XFILLER_2_29 vssd1 vssd1 vccd1 vccd1 sky130_fd_sc_hd__decap_4
XFILLER_15_91 vssd1 vssd1 vccd1 vccd1 sky130_ef_sc_hd__decap_12
XFILLER_17_102 vssd1 vssd1 vccd1 vccd1 sky130_fd_sc_hd__fill_1
XANTENNA_input3_A io_in[2] vssd1 vssd1 vccd1 vccd1 sky130_fd_sc_hd__diode_2
XFILLER_3_83 vssd1 vssd1 vccd1 vccd1 sky130_ef_sc_hd__decap_12
XFILLER_3_50 vssd1 vssd1 vccd1 vccd1 sky130_fd_sc_hd__decap_6
XFILLER_22_15 vssd1 vssd1 vccd1 vccd1 sky130_ef_sc_hd__decap_12
XFILLER_6_101 vssd1 vssd1 vccd1 vccd1 sky130_fd_sc_hd__fill_2