*SPEF "ieee 1481-1999"
*DESIGN "multiplexer"
*DATE "11:11:11 Fri 11 11, 1111"
*VENDOR "OpenRCX"
*PROGRAM "Parallel Extraction"
*VERSION "1.0"
*DESIGN_FLOW "NAME_SCOPE LOCAL" "PIN_CAP NONE"
*DIVIDER /
*DELIMITER :
*BUS_DELIMITER []
*T_UNIT 1 NS
*C_UNIT 1 PF
*R_UNIT 1 OHM
*L_UNIT 1 HENRY

*NAME_MAP
*1 design_clk_o
*2 dsi_all[0]
*3 dsi_all[10]
*4 dsi_all[11]
*5 dsi_all[12]
*6 dsi_all[13]
*7 dsi_all[14]
*8 dsi_all[15]
*9 dsi_all[16]
*10 dsi_all[17]
*11 dsi_all[18]
*12 dsi_all[19]
*13 dsi_all[1]
*14 dsi_all[20]
*15 dsi_all[21]
*16 dsi_all[22]
*17 dsi_all[23]
*18 dsi_all[24]
*19 dsi_all[25]
*20 dsi_all[26]
*21 dsi_all[27]
*22 dsi_all[2]
*23 dsi_all[3]
*24 dsi_all[4]
*25 dsi_all[5]
*26 dsi_all[6]
*27 dsi_all[7]
*28 dsi_all[8]
*29 dsi_all[9]
*30 dso_6502[0]
*31 dso_6502[10]
*32 dso_6502[11]
*33 dso_6502[12]
*34 dso_6502[13]
*35 dso_6502[14]
*36 dso_6502[15]
*37 dso_6502[16]
*38 dso_6502[17]
*39 dso_6502[18]
*40 dso_6502[19]
*41 dso_6502[1]
*42 dso_6502[20]
*43 dso_6502[21]
*44 dso_6502[22]
*45 dso_6502[23]
*46 dso_6502[24]
*47 dso_6502[25]
*48 dso_6502[26]
*49 dso_6502[2]
*50 dso_6502[3]
*51 dso_6502[4]
*52 dso_6502[5]
*53 dso_6502[6]
*54 dso_6502[7]
*55 dso_6502[8]
*56 dso_6502[9]
*57 dso_LCD[0]
*58 dso_LCD[1]
*59 dso_LCD[2]
*60 dso_LCD[3]
*61 dso_LCD[4]
*62 dso_LCD[5]
*63 dso_LCD[6]
*64 dso_LCD[7]
*65 dso_as1802[0]
*66 dso_as1802[10]
*67 dso_as1802[11]
*68 dso_as1802[12]
*69 dso_as1802[13]
*70 dso_as1802[14]
*71 dso_as1802[15]
*72 dso_as1802[16]
*73 dso_as1802[17]
*74 dso_as1802[18]
*75 dso_as1802[19]
*76 dso_as1802[1]
*77 dso_as1802[20]
*78 dso_as1802[21]
*79 dso_as1802[22]
*80 dso_as1802[23]
*81 dso_as1802[24]
*82 dso_as1802[25]
*83 dso_as1802[26]
*84 dso_as1802[2]
*85 dso_as1802[3]
*86 dso_as1802[4]
*87 dso_as1802[5]
*88 dso_as1802[6]
*89 dso_as1802[7]
*90 dso_as1802[8]
*91 dso_as1802[9]
*92 dso_as2650[0]
*93 dso_as2650[10]
*94 dso_as2650[11]
*95 dso_as2650[12]
*96 dso_as2650[13]
*97 dso_as2650[14]
*98 dso_as2650[15]
*99 dso_as2650[16]
*100 dso_as2650[17]
*101 dso_as2650[18]
*102 dso_as2650[19]
*103 dso_as2650[1]
*104 dso_as2650[20]
*105 dso_as2650[21]
*106 dso_as2650[22]
*107 dso_as2650[23]
*108 dso_as2650[24]
*109 dso_as2650[25]
*110 dso_as2650[26]
*111 dso_as2650[2]
*112 dso_as2650[3]
*113 dso_as2650[4]
*114 dso_as2650[5]
*115 dso_as2650[6]
*116 dso_as2650[7]
*117 dso_as2650[8]
*118 dso_as2650[9]
*119 dso_as512512512[0]
*120 dso_as512512512[10]
*121 dso_as512512512[11]
*122 dso_as512512512[12]
*123 dso_as512512512[13]
*124 dso_as512512512[14]
*125 dso_as512512512[15]
*126 dso_as512512512[16]
*127 dso_as512512512[17]
*128 dso_as512512512[18]
*129 dso_as512512512[19]
*130 dso_as512512512[1]
*131 dso_as512512512[20]
*132 dso_as512512512[21]
*133 dso_as512512512[22]
*134 dso_as512512512[23]
*135 dso_as512512512[24]
*136 dso_as512512512[25]
*137 dso_as512512512[26]
*138 dso_as512512512[27]
*139 dso_as512512512[2]
*140 dso_as512512512[3]
*141 dso_as512512512[4]
*142 dso_as512512512[5]
*143 dso_as512512512[6]
*144 dso_as512512512[7]
*145 dso_as512512512[8]
*146 dso_as512512512[9]
*147 dso_as5401[0]
*148 dso_as5401[10]
*149 dso_as5401[11]
*150 dso_as5401[12]
*151 dso_as5401[13]
*152 dso_as5401[14]
*153 dso_as5401[15]
*154 dso_as5401[16]
*155 dso_as5401[17]
*156 dso_as5401[18]
*157 dso_as5401[19]
*158 dso_as5401[1]
*159 dso_as5401[20]
*160 dso_as5401[21]
*161 dso_as5401[22]
*162 dso_as5401[23]
*163 dso_as5401[24]
*164 dso_as5401[25]
*165 dso_as5401[26]
*166 dso_as5401[2]
*167 dso_as5401[3]
*168 dso_as5401[4]
*169 dso_as5401[5]
*170 dso_as5401[6]
*171 dso_as5401[7]
*172 dso_as5401[8]
*173 dso_as5401[9]
*174 dso_counter[0]
*175 dso_counter[10]
*176 dso_counter[11]
*177 dso_counter[1]
*178 dso_counter[2]
*179 dso_counter[3]
*180 dso_counter[4]
*181 dso_counter[5]
*182 dso_counter[6]
*183 dso_counter[7]
*184 dso_counter[8]
*185 dso_counter[9]
*186 dso_diceroll[0]
*187 dso_diceroll[1]
*188 dso_diceroll[2]
*189 dso_diceroll[3]
*190 dso_diceroll[4]
*191 dso_diceroll[5]
*192 dso_diceroll[6]
*193 dso_diceroll[7]
*194 dso_mc14500[0]
*195 dso_mc14500[1]
*196 dso_mc14500[2]
*197 dso_mc14500[3]
*198 dso_mc14500[4]
*199 dso_mc14500[5]
*200 dso_mc14500[6]
*201 dso_mc14500[7]
*202 dso_mc14500[8]
*203 dso_multiplier[0]
*204 dso_multiplier[1]
*205 dso_multiplier[2]
*206 dso_multiplier[3]
*207 dso_multiplier[4]
*208 dso_multiplier[5]
*209 dso_multiplier[6]
*210 dso_multiplier[7]
*211 dso_nand
*212 dso_posit[0]
*213 dso_posit[1]
*214 dso_posit[2]
*215 dso_posit[3]
*216 dso_tbb1143[0]
*217 dso_tbb1143[1]
*218 dso_tbb1143[2]
*219 dso_tbb1143[3]
*220 dso_tbb1143[4]
*221 dso_tbb1143[5]
*222 dso_tbb1143[6]
*223 dso_tbb1143[7]
*224 dso_tune
*225 dso_vgatest[0]
*226 dso_vgatest[1]
*227 dso_vgatest[2]
*228 dso_vgatest[3]
*229 dso_vgatest[4]
*230 dso_vgatest[5]
*231 dso_vgatest[6]
*232 dso_vgatest[7]
*233 dso_vgatest[8]
*234 dso_vgatest[9]
*235 io_in[0]
*236 io_in[10]
*237 io_in[11]
*238 io_in[12]
*239 io_in[13]
*240 io_in[14]
*241 io_in[15]
*242 io_in[16]
*243 io_in[17]
*244 io_in[18]
*245 io_in[19]
*246 io_in[1]
*247 io_in[20]
*248 io_in[21]
*249 io_in[22]
*250 io_in[23]
*251 io_in[24]
*252 io_in[25]
*253 io_in[26]
*254 io_in[27]
*255 io_in[28]
*256 io_in[29]
*257 io_in[2]
*258 io_in[30]
*259 io_in[31]
*260 io_in[32]
*261 io_in[33]
*262 io_in[34]
*263 io_in[35]
*264 io_in[36]
*265 io_in[37]
*266 io_in[3]
*267 io_in[4]
*268 io_in[5]
*269 io_in[6]
*270 io_in[7]
*271 io_in[8]
*272 io_in[9]
*273 io_oeb[0]
*274 net507
*275 io_oeb[11]
*276 io_oeb[12]
*277 io_oeb[13]
*278 io_oeb[14]
*279 io_oeb[15]
*280 io_oeb[16]
*281 io_oeb[17]
*282 io_oeb[18]
*283 io_oeb[19]
*284 net488
*285 io_oeb[20]
*286 io_oeb[21]
*287 io_oeb[22]
*288 io_oeb[23]
*289 io_oeb[24]
*290 io_oeb[25]
*291 io_oeb[26]
*292 io_oeb[27]
*293 io_oeb[28]
*294 io_oeb[29]
*295 net489
*296 io_oeb[30]
*297 io_oeb[31]
*298 io_oeb[32]
*299 io_oeb[33]
*300 io_oeb[34]
*301 io_oeb[35]
*302 io_oeb[36]
*303 io_oeb[37]
*304 net490
*305 net491
*306 net502
*307 net503
*308 net504
*309 net505
*310 net506
*311 io_out[0]
*312 net497
*313 io_out[11]
*314 io_out[12]
*315 io_out[13]
*316 io_out[14]
*317 io_out[15]
*318 io_out[16]
*319 io_out[17]
*320 io_out[18]
*321 io_out[19]
*322 io_out[1]
*323 io_out[20]
*324 io_out[21]
*325 io_out[22]
*326 io_out[23]
*327 io_out[24]
*328 io_out[25]
*329 io_out[26]
*330 io_out[27]
*331 io_out[28]
*332 io_out[29]
*333 io_out[2]
*334 io_out[30]
*335 io_out[31]
*336 io_out[32]
*337 io_out[33]
*338 io_out[34]
*339 io_out[35]
*340 io_out[36]
*341 io_out[37]
*342 io_out[3]
*343 io_out[4]
*344 net492
*345 net493
*346 net494
*347 net495
*348 net496
*349 nand_dsi[0]
*350 nand_dsi[1]
*351 oeb_6502
*352 oeb_as1802
*353 oeb_as2650
*354 oeb_as512512512
*355 oeb_as5401
*356 oeb_mc14500
*357 rst_6502
*358 rst_LCD
*359 rst_as1802
*360 rst_as2650
*361 rst_as512512512
*362 rst_as5401
*363 rst_counter
*364 rst_diceroll
*365 rst_mc14500
*366 rst_posit
*367 rst_tbb1143
*368 rst_tune
*369 rst_vgatest
*372 wb_clk_i
*373 wb_rst_i
*374 wbs_ack_o
*375 wbs_adr_i[0]
*376 wbs_adr_i[10]
*377 wbs_adr_i[11]
*378 wbs_adr_i[12]
*379 wbs_adr_i[13]
*380 wbs_adr_i[14]
*381 wbs_adr_i[15]
*382 wbs_adr_i[16]
*383 wbs_adr_i[17]
*384 wbs_adr_i[18]
*385 wbs_adr_i[19]
*386 wbs_adr_i[1]
*387 wbs_adr_i[20]
*388 wbs_adr_i[21]
*389 wbs_adr_i[22]
*390 wbs_adr_i[23]
*391 wbs_adr_i[24]
*392 wbs_adr_i[25]
*393 wbs_adr_i[26]
*394 wbs_adr_i[27]
*395 wbs_adr_i[28]
*396 wbs_adr_i[29]
*397 wbs_adr_i[2]
*398 wbs_adr_i[30]
*399 wbs_adr_i[31]
*400 wbs_adr_i[3]
*401 wbs_adr_i[4]
*402 wbs_adr_i[5]
*403 wbs_adr_i[6]
*404 wbs_adr_i[7]
*405 wbs_adr_i[8]
*406 wbs_adr_i[9]
*407 wbs_cyc_i
*408 wbs_dat_i[0]
*409 wbs_dat_i[10]
*410 wbs_dat_i[11]
*411 wbs_dat_i[12]
*412 wbs_dat_i[13]
*413 wbs_dat_i[14]
*414 wbs_dat_i[15]
*415 wbs_dat_i[16]
*416 wbs_dat_i[17]
*417 wbs_dat_i[18]
*418 wbs_dat_i[19]
*419 wbs_dat_i[1]
*420 wbs_dat_i[20]
*421 wbs_dat_i[21]
*422 wbs_dat_i[22]
*423 wbs_dat_i[23]
*424 wbs_dat_i[24]
*425 wbs_dat_i[25]
*426 wbs_dat_i[26]
*427 wbs_dat_i[27]
*428 wbs_dat_i[28]
*429 wbs_dat_i[29]
*430 wbs_dat_i[2]
*431 wbs_dat_i[30]
*432 wbs_dat_i[31]
*433 wbs_dat_i[3]
*434 wbs_dat_i[4]
*435 wbs_dat_i[5]
*436 wbs_dat_i[6]
*437 wbs_dat_i[7]
*438 wbs_dat_i[8]
*439 wbs_dat_i[9]
*440 wbs_dat_o[0]
*441 wbs_dat_o[10]
*442 wbs_dat_o[11]
*443 wbs_dat_o[12]
*444 wbs_dat_o[13]
*445 wbs_dat_o[14]
*446 wbs_dat_o[15]
*447 wbs_dat_o[16]
*448 wbs_dat_o[17]
*449 wbs_dat_o[18]
*450 wbs_dat_o[19]
*451 wbs_dat_o[1]
*452 wbs_dat_o[20]
*453 wbs_dat_o[21]
*454 wbs_dat_o[22]
*455 wbs_dat_o[23]
*456 wbs_dat_o[24]
*457 wbs_dat_o[25]
*458 wbs_dat_o[26]
*459 wbs_dat_o[27]
*460 net498
*461 net499
*462 wbs_dat_o[2]
*463 net500
*464 net501
*465 wbs_dat_o[3]
*466 wbs_dat_o[4]
*467 wbs_dat_o[5]
*468 wbs_dat_o[6]
*469 wbs_dat_o[7]
*470 wbs_dat_o[8]
*471 wbs_dat_o[9]
*472 wbs_stb_i
*473 wbs_we_i
*474 _0000_
*475 _0001_
*476 _0002_
*477 _0003_
*478 _0004_
*479 _0005_
*480 _0006_
*481 _0007_
*482 _0008_
*483 _0009_
*484 _0010_
*485 _0011_
*486 _0012_
*487 _0013_
*488 _0014_
*489 _0015_
*490 _0016_
*491 _0017_
*492 _0018_
*493 _0019_
*494 _0020_
*495 _0021_
*496 _0022_
*497 _0023_
*498 _0024_
*499 _0025_
*500 _0026_
*501 _0027_
*502 _0028_
*503 _0029_
*504 _0030_
*505 _0031_
*506 _0032_
*507 _0033_
*508 _0034_
*509 _0035_
*510 _0036_
*511 _0037_
*512 _0038_
*513 _0039_
*514 _0040_
*515 _0041_
*516 _0042_
*517 _0043_
*518 _0044_
*519 _0045_
*520 _0046_
*521 _0047_
*522 _0048_
*523 _0049_
*524 _0050_
*525 _0051_
*526 _0052_
*527 _0053_
*528 _0054_
*529 _0055_
*530 _0056_
*531 _0057_
*532 _0058_
*533 _0059_
*534 _0060_
*535 _0061_
*536 _0062_
*537 _0063_
*538 _0064_
*539 _0065_
*540 _0066_
*541 _0067_
*542 _0068_
*543 _0069_
*544 _0070_
*545 _0071_
*546 _0072_
*547 _0073_
*548 _0074_
*549 _0075_
*550 _0076_
*551 _0077_
*552 _0078_
*553 _0079_
*554 _0080_
*555 _0081_
*556 _0082_
*557 _0083_
*558 _0084_
*559 _0085_
*560 _0086_
*561 _0087_
*562 _0088_
*563 _0089_
*564 _0090_
*565 _0091_
*566 _0092_
*567 _0093_
*568 _0094_
*569 _0095_
*570 _0096_
*571 _0097_
*572 _0098_
*573 _0099_
*574 _0100_
*575 _0101_
*576 _0102_
*577 _0103_
*578 _0104_
*579 _0105_
*580 _0106_
*581 _0107_
*582 _0108_
*583 _0109_
*584 _0110_
*585 _0111_
*586 _0112_
*587 _0113_
*588 _0114_
*589 _0115_
*590 _0116_
*591 _0117_
*592 _0118_
*593 _0119_
*594 _0120_
*595 _0121_
*596 _0122_
*597 _0123_
*598 _0124_
*599 _0125_
*600 _0126_
*601 _0127_
*602 _0128_
*603 _0129_
*604 _0130_
*605 _0131_
*606 _0132_
*607 _0133_
*608 _0134_
*609 _0135_
*610 _0136_
*611 _0137_
*612 _0138_
*613 _0139_
*614 _0140_
*615 _0141_
*616 _0142_
*617 _0143_
*618 _0144_
*619 _0145_
*620 _0146_
*621 _0147_
*622 _0148_
*623 _0149_
*624 _0150_
*625 _0151_
*626 _0152_
*627 _0153_
*628 _0154_
*629 _0155_
*630 _0156_
*631 _0157_
*632 _0158_
*633 _0159_
*634 _0160_
*635 _0161_
*636 _0162_
*637 _0163_
*638 _0164_
*639 _0165_
*640 _0166_
*641 _0167_
*642 _0168_
*643 _0169_
*644 _0170_
*645 _0171_
*646 _0172_
*647 _0173_
*648 _0174_
*649 _0175_
*650 _0176_
*651 _0177_
*652 _0178_
*653 _0179_
*654 _0180_
*655 _0181_
*656 _0182_
*657 _0183_
*658 _0184_
*659 _0185_
*660 _0186_
*661 _0187_
*662 _0188_
*663 _0189_
*664 _0190_
*665 _0191_
*666 _0192_
*667 _0193_
*668 _0194_
*669 _0195_
*670 _0196_
*671 _0197_
*672 _0198_
*673 _0199_
*674 _0200_
*675 _0201_
*676 _0202_
*677 _0203_
*678 _0204_
*679 _0205_
*680 _0206_
*681 _0207_
*682 _0208_
*683 _0209_
*684 _0210_
*685 _0211_
*686 _0212_
*687 _0213_
*688 _0214_
*689 _0215_
*690 _0216_
*691 _0217_
*692 _0218_
*693 _0219_
*694 _0220_
*695 _0221_
*696 _0222_
*697 _0223_
*698 _0224_
*699 _0225_
*700 _0226_
*701 _0227_
*702 _0228_
*703 _0229_
*704 _0230_
*705 _0231_
*706 _0232_
*707 _0233_
*708 _0234_
*709 _0235_
*710 _0236_
*711 _0237_
*712 _0238_
*713 _0239_
*714 _0240_
*715 _0241_
*716 _0242_
*717 _0243_
*718 _0244_
*719 _0245_
*720 _0246_
*721 _0247_
*722 _0248_
*723 _0249_
*724 _0250_
*725 _0251_
*726 _0252_
*727 _0253_
*728 _0254_
*729 _0255_
*730 _0256_
*731 _0257_
*732 _0258_
*733 _0259_
*734 _0260_
*735 _0261_
*736 _0262_
*737 _0263_
*738 _0264_
*739 _0265_
*740 _0266_
*741 _0267_
*742 _0268_
*743 _0269_
*744 _0270_
*745 _0271_
*746 _0272_
*747 _0273_
*748 _0274_
*749 _0275_
*750 _0276_
*751 _0277_
*752 _0278_
*753 _0279_
*754 _0280_
*755 _0281_
*756 _0282_
*757 _0283_
*758 _0284_
*759 _0285_
*760 _0286_
*761 _0287_
*762 _0288_
*763 _0289_
*764 _0290_
*765 _0291_
*766 _0292_
*767 _0293_
*768 _0294_
*769 _0295_
*770 _0296_
*771 _0297_
*772 _0298_
*773 _0299_
*774 _0300_
*775 _0301_
*776 _0302_
*777 _0303_
*778 _0304_
*779 _0305_
*780 _0306_
*781 _0307_
*782 _0308_
*783 _0309_
*784 _0310_
*785 _0311_
*786 _0312_
*787 _0313_
*788 _0314_
*789 _0315_
*790 _0316_
*791 _0317_
*792 _0318_
*793 _0319_
*794 _0320_
*795 _0321_
*796 _0322_
*797 _0323_
*798 _0324_
*799 _0325_
*800 _0326_
*801 _0327_
*802 _0328_
*803 _0329_
*804 _0330_
*805 _0331_
*806 _0332_
*807 _0333_
*808 _0334_
*809 _0335_
*810 _0336_
*811 _0337_
*812 _0338_
*813 _0339_
*814 _0340_
*815 _0341_
*816 _0342_
*817 _0343_
*818 _0344_
*819 _0345_
*820 _0346_
*821 _0347_
*822 _0348_
*823 _0349_
*824 _0350_
*825 _0351_
*826 _0352_
*827 _0353_
*828 _0354_
*829 _0355_
*830 _0356_
*831 _0357_
*832 _0358_
*833 _0359_
*834 _0360_
*835 _0361_
*836 _0362_
*837 _0363_
*838 _0364_
*839 _0365_
*840 _0366_
*841 _0367_
*842 _0368_
*843 _0369_
*844 _0370_
*845 _0371_
*846 _0372_
*847 _0373_
*848 _0374_
*849 _0375_
*850 _0376_
*851 _0377_
*852 _0378_
*853 _0379_
*854 _0380_
*855 _0381_
*856 _0382_
*857 _0383_
*858 _0384_
*859 _0385_
*860 _0386_
*861 _0387_
*862 _0388_
*863 _0389_
*864 _0390_
*865 _0391_
*866 _0392_
*867 _0393_
*868 _0394_
*869 _0395_
*870 _0396_
*871 _0397_
*872 _0398_
*873 _0399_
*874 _0400_
*875 _0401_
*876 _0402_
*877 _0403_
*878 _0404_
*879 _0405_
*880 _0406_
*881 _0407_
*882 _0408_
*883 _0409_
*884 _0410_
*885 _0411_
*886 _0412_
*887 _0413_
*888 _0414_
*889 _0415_
*890 _0416_
*891 _0417_
*892 _0418_
*893 _0419_
*894 _0420_
*895 _0421_
*896 _0422_
*897 _0423_
*898 _0424_
*899 _0425_
*900 _0426_
*901 _0427_
*902 _0428_
*903 _0429_
*904 _0430_
*905 _0431_
*906 _0432_
*907 _0433_
*908 _0434_
*909 _0435_
*910 _0436_
*911 _0437_
*912 _0438_
*913 _0439_
*914 _0440_
*915 _0441_
*916 _0442_
*917 _0443_
*918 _0444_
*919 _0445_
*920 _0446_
*921 _0447_
*922 _0448_
*923 clknet_0_wb_clk_i
*924 clknet_3_0__leaf_wb_clk_i
*925 clknet_3_1__leaf_wb_clk_i
*926 clknet_3_2__leaf_wb_clk_i
*927 clknet_3_3__leaf_wb_clk_i
*928 clknet_3_4__leaf_wb_clk_i
*929 clknet_3_5__leaf_wb_clk_i
*930 clknet_3_6__leaf_wb_clk_i
*931 clknet_3_7__leaf_wb_clk_i
*932 design_addr\[0\]
*933 design_addr\[1\]
*934 design_addr\[2\]
*935 design_addr\[3\]
*936 net1
*937 net10
*938 net100
*939 net101
*940 net102
*941 net103
*942 net104
*943 net105
*944 net106
*945 net107
*946 net108
*947 net109
*948 net11
*949 net110
*950 net111
*951 net112
*952 net113
*953 net114
*954 net115
*955 net116
*956 net117
*957 net118
*958 net119
*959 net12
*960 net120
*961 net121
*962 net122
*963 net123
*964 net124
*965 net125
*966 net126
*967 net127
*968 net128
*969 net129
*970 net13
*971 net130
*972 net131
*973 net132
*974 net133
*975 net134
*976 net135
*977 net136
*978 net137
*979 net138
*980 net139
*981 net14
*982 net140
*983 net141
*984 net142
*985 net143
*986 net144
*987 net145
*988 net146
*989 net147
*990 net148
*991 net149
*992 net15
*993 net150
*994 net151
*995 net152
*996 net153
*997 net154
*998 net155
*999 net156
*1000 net157
*1001 net158
*1002 net159
*1003 net16
*1004 net160
*1005 net161
*1006 net162
*1007 net163
*1008 net164
*1009 net165
*1010 net166
*1011 net167
*1012 net168
*1013 net169
*1014 net17
*1015 net170
*1016 net171
*1017 net172
*1018 net173
*1019 net174
*1020 net175
*1021 net176
*1022 net177
*1023 net178
*1024 net179
*1025 net18
*1026 net180
*1027 net181
*1028 net182
*1029 net183
*1030 net184
*1031 net185
*1032 net186
*1033 net187
*1034 net188
*1035 net189
*1036 net19
*1037 net190
*1038 net191
*1039 net192
*1040 net193
*1041 net194
*1042 net195
*1043 net196
*1044 net197
*1045 net198
*1046 net199
*1047 net2
*1048 net20
*1049 net200
*1050 net201
*1051 net202
*1052 net203
*1053 net204
*1054 net205
*1055 net206
*1056 net207
*1057 net208
*1058 net209
*1059 net21
*1060 net210
*1061 net211
*1062 net212
*1063 net213
*1064 net214
*1065 net215
*1066 net216
*1067 net217
*1068 net218
*1069 net219
*1070 net22
*1071 net220
*1072 net221
*1073 net222
*1074 net223
*1075 net224
*1076 net225
*1077 net226
*1078 net227
*1079 net228
*1080 net229
*1081 net23
*1082 net230
*1083 net231
*1084 net232
*1085 net233
*1086 net234
*1087 net235
*1088 net236
*1089 net237
*1090 net238
*1091 net239
*1092 net24
*1093 net240
*1094 net241
*1095 net242
*1096 net243
*1097 net244
*1098 net245
*1099 net246
*1100 net247
*1101 net248
*1102 net249
*1103 net25
*1104 net250
*1105 net251
*1106 net252
*1107 net253
*1108 net254
*1109 net255
*1110 net256
*1111 net257
*1112 net258
*1113 net259
*1114 net26
*1115 net260
*1116 net261
*1117 net262
*1118 net263
*1119 net264
*1120 net265
*1121 net266
*1122 net267
*1123 net268
*1124 net269
*1125 net27
*1126 net270
*1127 net271
*1128 net272
*1129 net273
*1130 net274
*1131 net275
*1132 net276
*1133 net277
*1134 net278
*1135 net279
*1136 net28
*1137 net280
*1138 net281
*1139 net282
*1140 net283
*1141 net284
*1142 net285
*1143 net286
*1144 net287
*1145 net288
*1146 net289
*1147 net29
*1148 net290
*1149 net291
*1150 net292
*1151 net293
*1152 net294
*1153 net295
*1154 net296
*1155 net297
*1156 net298
*1157 net299
*1158 net3
*1159 net30
*1160 net300
*1161 net301
*1162 net302
*1163 net303
*1164 net304
*1165 net305
*1166 net306
*1167 net307
*1168 net308
*1169 net309
*1170 net31
*1171 net310
*1172 net311
*1173 net312
*1174 net313
*1175 net314
*1176 net315
*1177 net316
*1178 net317
*1179 net318
*1180 net319
*1181 net32
*1182 net320
*1183 net321
*1184 net322
*1185 net323
*1186 net324
*1187 net325
*1188 net326
*1189 net327
*1190 net328
*1191 net329
*1192 net33
*1193 net330
*1194 net331
*1195 net332
*1196 net333
*1197 net334
*1198 net335
*1199 net336
*1200 net337
*1201 net338
*1202 net339
*1203 net34
*1204 net340
*1205 net341
*1206 net342
*1207 net343
*1208 net344
*1209 net345
*1210 net346
*1211 net347
*1212 net348
*1213 net349
*1214 net35
*1215 net350
*1216 net351
*1217 net352
*1218 net353
*1219 net354
*1220 net355
*1221 net356
*1222 net357
*1223 net358
*1224 net359
*1225 net36
*1226 net360
*1227 net361
*1228 net362
*1229 net363
*1230 net364
*1231 net365
*1232 net366
*1233 net367
*1234 net368
*1235 net369
*1236 net37
*1237 net370
*1238 net371
*1239 net372
*1240 net373
*1241 net374
*1242 net375
*1243 net376
*1244 net377
*1245 net378
*1246 net379
*1247 net38
*1248 net380
*1249 net381
*1250 net382
*1251 net383
*1252 net384
*1253 net385
*1254 net386
*1255 net387
*1256 net388
*1257 net389
*1258 net39
*1259 net390
*1260 net391
*1261 net392
*1262 net393
*1263 net394
*1264 net395
*1265 net396
*1266 net397
*1267 net398
*1268 net399
*1269 net4
*1270 net40
*1271 net400
*1272 net401
*1273 net402
*1274 net403
*1275 net404
*1276 net405
*1277 net406
*1278 net407
*1279 net408
*1280 net409
*1281 net41
*1282 net410
*1283 net411
*1284 net412
*1285 net413
*1286 net414
*1287 net415
*1288 net416
*1289 net417
*1290 net418
*1291 net419
*1292 net42
*1293 net420
*1294 net421
*1295 net422
*1296 net423
*1297 net424
*1298 net425
*1299 net426
*1300 net427
*1301 net428
*1302 net429
*1303 net43
*1304 net430
*1305 net431
*1306 net432
*1307 net433
*1308 net434
*1309 net435
*1310 net436
*1311 net437
*1312 net438
*1313 net439
*1314 net44
*1315 net440
*1316 net441
*1317 net442
*1318 net443
*1319 net444
*1320 net445
*1321 net446
*1322 net447
*1323 net448
*1324 net449
*1325 net45
*1326 net450
*1327 net451
*1328 net452
*1329 net453
*1330 net454
*1331 net455
*1332 net456
*1333 net457
*1334 net458
*1335 net459
*1336 net46
*1337 net460
*1338 net461
*1339 net462
*1340 net463
*1341 net464
*1342 net465
*1343 net466
*1344 net467
*1345 net468
*1346 net469
*1347 net47
*1348 net470
*1349 net471
*1350 net472
*1351 net473
*1352 net474
*1353 net475
*1354 net476
*1355 net477
*1356 net478
*1357 net479
*1358 net48
*1359 net480
*1360 net481
*1361 net482
*1362 net483
*1363 net484
*1364 net485
*1365 net486
*1366 net487
*1367 net49
*1368 net5
*1369 net50
*1370 net508
*1371 net509
*1372 net51
*1373 net510
*1374 net511
*1375 net512
*1376 net513
*1377 net514
*1378 net515
*1379 net516
*1380 net517
*1381 net518
*1382 net519
*1383 net52
*1384 net520
*1385 net521
*1386 net522
*1387 net523
*1388 net524
*1389 net525
*1390 net526
*1391 net527
*1392 net528
*1393 net529
*1394 net53
*1395 net530
*1396 net531
*1397 net532
*1398 net533
*1399 net534
*1400 net535
*1401 net536
*1402 net537
*1403 net538
*1404 net539
*1405 net54
*1406 net540
*1407 net541
*1408 net542
*1409 net543
*1410 net544
*1411 net545
*1412 net546
*1413 net547
*1414 net548
*1415 net549
*1416 net55
*1417 net550
*1418 net551
*1419 net552
*1420 net553
*1421 net554
*1422 net555
*1423 net556
*1424 net557
*1425 net558
*1426 net559
*1427 net56
*1428 net560
*1429 net561
*1430 net562
*1431 net563
*1432 net564
*1433 net565
*1434 net566
*1435 net567
*1436 net568
*1437 net569
*1438 net57
*1439 net570
*1440 net571
*1441 net572
*1442 net573
*1443 net574
*1444 net575
*1445 net576
*1446 net577
*1447 net578
*1448 net579
*1449 net58
*1450 net580
*1451 net581
*1452 net59
*1453 net6
*1454 net60
*1455 net61
*1456 net62
*1457 net63
*1458 net64
*1459 net65
*1460 net66
*1461 net67
*1462 net68
*1463 net69
*1464 net7
*1465 net70
*1466 net71
*1467 net72
*1468 net73
*1469 net74
*1470 net75
*1471 net76
*1472 net77
*1473 net78
*1474 net79
*1475 net8
*1476 net80
*1477 net81
*1478 net82
*1479 net83
*1480 net84
*1481 net85
*1482 net86
*1483 net87
*1484 net88
*1485 net89
*1486 net9
*1487 net90
*1488 net91
*1489 net92
*1490 net93
*1491 net94
*1492 net95
*1493 net96
*1494 net97
*1495 net98
*1496 net99
*1497 wb_clk_override
*1498 wb_counter\[0\]
*1499 wb_counter\[10\]
*1500 wb_counter\[11\]
*1501 wb_counter\[12\]
*1502 wb_counter\[13\]
*1503 wb_counter\[14\]
*1504 wb_counter\[15\]
*1505 wb_counter\[16\]
*1506 wb_counter\[17\]
*1507 wb_counter\[18\]
*1508 wb_counter\[19\]
*1509 wb_counter\[20\]
*1510 wb_counter\[21\]
*1511 wb_counter\[22\]
*1512 wb_counter\[23\]
*1513 wb_counter\[5\]
*1514 wb_counter\[6\]
*1515 wb_counter\[7\]
*1516 wb_counter\[8\]
*1517 wb_counter\[9\]
*1518 wb_design_addr_override\[0\]
*1519 wb_design_addr_override\[1\]
*1520 wb_design_addr_override\[2\]
*1521 wb_design_addr_override\[3\]
*1522 wb_feedback_delay
*1523 wb_io_override\[0\]
*1524 wb_io_override\[10\]
*1525 wb_io_override\[11\]
*1526 wb_io_override\[12\]
*1527 wb_io_override\[13\]
*1528 wb_io_override\[14\]
*1529 wb_io_override\[15\]
*1530 wb_io_override\[16\]
*1531 wb_io_override\[17\]
*1532 wb_io_override\[18\]
*1533 wb_io_override\[19\]
*1534 wb_io_override\[1\]
*1535 wb_io_override\[20\]
*1536 wb_io_override\[21\]
*1537 wb_io_override\[22\]
*1538 wb_io_override\[23\]
*1539 wb_io_override\[24\]
*1540 wb_io_override\[25\]
*1541 wb_io_override\[26\]
*1542 wb_io_override\[27\]
*1543 wb_io_override\[2\]
*1544 wb_io_override\[3\]
*1545 wb_io_override\[4\]
*1546 wb_io_override\[5\]
*1547 wb_io_override\[6\]
*1548 wb_io_override\[7\]
*1549 wb_io_override\[8\]
*1550 wb_io_override\[9\]
*1551 wb_override
*1552 wb_rst_override
*1553 wb_single_step
*1554 ANTENNA_1
*1555 ANTENNA_10
*1556 ANTENNA_11
*1557 ANTENNA_12
*1558 ANTENNA_13
*1559 ANTENNA_14
*1560 ANTENNA_15
*1561 ANTENNA_16
*1562 ANTENNA_17
*1563 ANTENNA_18
*1564 ANTENNA_19
*1565 ANTENNA_2
*1566 ANTENNA_20
*1567 ANTENNA_21
*1568 ANTENNA_22
*1569 ANTENNA_23
*1570 ANTENNA_24
*1571 ANTENNA_25
*1572 ANTENNA_26
*1573 ANTENNA_27
*1574 ANTENNA_28
*1575 ANTENNA_29
*1576 ANTENNA_3
*1577 ANTENNA_30
*1578 ANTENNA_31
*1579 ANTENNA_32
*1580 ANTENNA_33
*1581 ANTENNA_34
*1582 ANTENNA_35
*1583 ANTENNA_36
*1584 ANTENNA_37
*1585 ANTENNA_38
*1586 ANTENNA_4
*1587 ANTENNA_5
*1588 ANTENNA_6
*1589 ANTENNA_7
*1590 ANTENNA_8
*1591 ANTENNA_9
*1592 FILLER_0_100
*1593 FILLER_0_11
*1594 FILLER_0_110
*1595 FILLER_0_113
*1596 FILLER_0_118
*1597 FILLER_0_128
*1598 FILLER_0_138
*1599 FILLER_0_144
*1600 FILLER_0_148
*1601 FILLER_0_156
*1602 FILLER_0_166
*1603 FILLER_0_169
*1604 FILLER_0_174
*1605 FILLER_0_184
*1606 FILLER_0_19
*1607 FILLER_0_194
*1608 FILLER_0_197
*1609 FILLER_0_211
*1610 FILLER_0_222
*1611 FILLER_0_225
*1612 FILLER_0_234
*1613 FILLER_0_245
*1614 FILLER_0_251
*1615 FILLER_0_253
*1616 FILLER_0_26
*1617 FILLER_0_270
*1618 FILLER_0_278
*1619 FILLER_0_281
*1620 FILLER_0_285
*1621 FILLER_0_29
*1622 FILLER_0_292
*1623 FILLER_0_3
*1624 FILLER_0_306
*1625 FILLER_0_309
*1626 FILLER_0_321
*1627 FILLER_0_33
*1628 FILLER_0_331
*1629 FILLER_0_335
*1630 FILLER_0_337
*1631 FILLER_0_345
*1632 FILLER_0_355
*1633 FILLER_0_362
*1634 FILLER_0_365
*1635 FILLER_0_373
*1636 FILLER_0_38
*1637 FILLER_0_383
*1638 FILLER_0_390
*1639 FILLER_0_393
*1640 FILLER_0_401
*1641 FILLER_0_411
*1642 FILLER_0_419
*1643 FILLER_0_421
*1644 FILLER_0_429
*1645 FILLER_0_439
*1646 FILLER_0_447
*1647 FILLER_0_449
*1648 FILLER_0_455
*1649 FILLER_0_46
*1650 FILLER_0_463
*1651 FILLER_0_471
*1652 FILLER_0_475
*1653 FILLER_0_477
*1654 FILLER_0_483
*1655 FILLER_0_490
*1656 FILLER_0_500
*1657 FILLER_0_505
*1658 FILLER_0_513
*1659 FILLER_0_523
*1660 FILLER_0_531
*1661 FILLER_0_533
*1662 FILLER_0_539
*1663 FILLER_0_54
*1664 FILLER_0_547
*1665 FILLER_0_555
*1666 FILLER_0_559
*1667 FILLER_0_561
*1668 FILLER_0_569
*1669 FILLER_0_57
*1670 FILLER_0_579
*1671 FILLER_0_587
*1672 FILLER_0_589
*1673 FILLER_0_597
*1674 FILLER_0_607
*1675 FILLER_0_615
*1676 FILLER_0_617
*1677 FILLER_0_623
*1678 FILLER_0_64
*1679 FILLER_0_72
*1680 FILLER_0_82
*1681 FILLER_0_85
*1682 FILLER_0_90
*1683 FILLER_100_109
*1684 FILLER_100_121
*1685 FILLER_100_133
*1686 FILLER_100_139
*1687 FILLER_100_141
*1688 FILLER_100_153
*1689 FILLER_100_165
*1690 FILLER_100_177
*1691 FILLER_100_189
*1692 FILLER_100_195
*1693 FILLER_100_197
*1694 FILLER_100_209
*1695 FILLER_100_21
*1696 FILLER_100_221
*1697 FILLER_100_233
*1698 FILLER_100_245
*1699 FILLER_100_251
*1700 FILLER_100_253
*1701 FILLER_100_265
*1702 FILLER_100_27
*1703 FILLER_100_277
*1704 FILLER_100_289
*1705 FILLER_100_29
*1706 FILLER_100_3
*1707 FILLER_100_301
*1708 FILLER_100_307
*1709 FILLER_100_309
*1710 FILLER_100_321
*1711 FILLER_100_333
*1712 FILLER_100_345
*1713 FILLER_100_361
*1714 FILLER_100_365
*1715 FILLER_100_369
*1716 FILLER_100_387
*1717 FILLER_100_399
*1718 FILLER_100_41
*1719 FILLER_100_411
*1720 FILLER_100_419
*1721 FILLER_100_421
*1722 FILLER_100_433
*1723 FILLER_100_445
*1724 FILLER_100_457
*1725 FILLER_100_469
*1726 FILLER_100_475
*1727 FILLER_100_477
*1728 FILLER_100_489
*1729 FILLER_100_501
*1730 FILLER_100_513
*1731 FILLER_100_525
*1732 FILLER_100_53
*1733 FILLER_100_531
*1734 FILLER_100_533
*1735 FILLER_100_545
*1736 FILLER_100_557
*1737 FILLER_100_569
*1738 FILLER_100_581
*1739 FILLER_100_587
*1740 FILLER_100_589
*1741 FILLER_100_601
*1742 FILLER_100_613
*1743 FILLER_100_623
*1744 FILLER_100_65
*1745 FILLER_100_77
*1746 FILLER_100_83
*1747 FILLER_100_85
*1748 FILLER_100_9
*1749 FILLER_100_97
*1750 FILLER_101_105
*1751 FILLER_101_111
*1752 FILLER_101_113
*1753 FILLER_101_125
*1754 FILLER_101_137
*1755 FILLER_101_149
*1756 FILLER_101_161
*1757 FILLER_101_167
*1758 FILLER_101_169
*1759 FILLER_101_181
*1760 FILLER_101_193
*1761 FILLER_101_205
*1762 FILLER_101_21
*1763 FILLER_101_217
*1764 FILLER_101_223
*1765 FILLER_101_225
*1766 FILLER_101_237
*1767 FILLER_101_249
*1768 FILLER_101_261
*1769 FILLER_101_273
*1770 FILLER_101_279
*1771 FILLER_101_281
*1772 FILLER_101_293
*1773 FILLER_101_3
*1774 FILLER_101_305
*1775 FILLER_101_317
*1776 FILLER_101_329
*1777 FILLER_101_33
*1778 FILLER_101_335
*1779 FILLER_101_337
*1780 FILLER_101_349
*1781 FILLER_101_361
*1782 FILLER_101_373
*1783 FILLER_101_385
*1784 FILLER_101_391
*1785 FILLER_101_393
*1786 FILLER_101_405
*1787 FILLER_101_417
*1788 FILLER_101_429
*1789 FILLER_101_441
*1790 FILLER_101_447
*1791 FILLER_101_449
*1792 FILLER_101_45
*1793 FILLER_101_461
*1794 FILLER_101_473
*1795 FILLER_101_485
*1796 FILLER_101_497
*1797 FILLER_101_503
*1798 FILLER_101_505
*1799 FILLER_101_517
*1800 FILLER_101_529
*1801 FILLER_101_53
*1802 FILLER_101_541
*1803 FILLER_101_553
*1804 FILLER_101_559
*1805 FILLER_101_561
*1806 FILLER_101_57
*1807 FILLER_101_573
*1808 FILLER_101_585
*1809 FILLER_101_597
*1810 FILLER_101_609
*1811 FILLER_101_615
*1812 FILLER_101_617
*1813 FILLER_101_69
*1814 FILLER_101_81
*1815 FILLER_101_9
*1816 FILLER_101_93
*1817 FILLER_102_109
*1818 FILLER_102_11
*1819 FILLER_102_121
*1820 FILLER_102_133
*1821 FILLER_102_139
*1822 FILLER_102_141
*1823 FILLER_102_153
*1824 FILLER_102_165
*1825 FILLER_102_177
*1826 FILLER_102_189
*1827 FILLER_102_195
*1828 FILLER_102_197
*1829 FILLER_102_209
*1830 FILLER_102_221
*1831 FILLER_102_23
*1832 FILLER_102_233
*1833 FILLER_102_245
*1834 FILLER_102_251
*1835 FILLER_102_253
*1836 FILLER_102_265
*1837 FILLER_102_27
*1838 FILLER_102_277
*1839 FILLER_102_289
*1840 FILLER_102_29
*1841 FILLER_102_3
*1842 FILLER_102_301
*1843 FILLER_102_307
*1844 FILLER_102_309
*1845 FILLER_102_321
*1846 FILLER_102_333
*1847 FILLER_102_345
*1848 FILLER_102_357
*1849 FILLER_102_363
*1850 FILLER_102_365
*1851 FILLER_102_377
*1852 FILLER_102_389
*1853 FILLER_102_401
*1854 FILLER_102_41
*1855 FILLER_102_413
*1856 FILLER_102_419
*1857 FILLER_102_421
*1858 FILLER_102_433
*1859 FILLER_102_445
*1860 FILLER_102_457
*1861 FILLER_102_469
*1862 FILLER_102_475
*1863 FILLER_102_477
*1864 FILLER_102_489
*1865 FILLER_102_501
*1866 FILLER_102_513
*1867 FILLER_102_525
*1868 FILLER_102_53
*1869 FILLER_102_531
*1870 FILLER_102_533
*1871 FILLER_102_545
*1872 FILLER_102_557
*1873 FILLER_102_569
*1874 FILLER_102_581
*1875 FILLER_102_587
*1876 FILLER_102_589
*1877 FILLER_102_601
*1878 FILLER_102_613
*1879 FILLER_102_623
*1880 FILLER_102_65
*1881 FILLER_102_77
*1882 FILLER_102_83
*1883 FILLER_102_85
*1884 FILLER_102_97
*1885 FILLER_103_105
*1886 FILLER_103_11
*1887 FILLER_103_111
*1888 FILLER_103_113
*1889 FILLER_103_125
*1890 FILLER_103_137
*1891 FILLER_103_149
*1892 FILLER_103_161
*1893 FILLER_103_167
*1894 FILLER_103_169
*1895 FILLER_103_181
*1896 FILLER_103_193
*1897 FILLER_103_205
*1898 FILLER_103_217
*1899 FILLER_103_223
*1900 FILLER_103_225
*1901 FILLER_103_23
*1902 FILLER_103_237
*1903 FILLER_103_249
*1904 FILLER_103_261