*SPEF "ieee 1481-1999"
*DESIGN "multiplexer"
*DATE "11:11:11 Fri 11 11, 1111"
*VENDOR "OpenRCX"
*PROGRAM "Parallel Extraction"
*VERSION "1.0"
*DESIGN_FLOW "NAME_SCOPE LOCAL" "PIN_CAP NONE"
*DIVIDER /
*DELIMITER :
*BUS_DELIMITER []
*T_UNIT 1 NS
*C_UNIT 1 PF
*R_UNIT 1 OHM
*L_UNIT 1 HENRY

*NAME_MAP
*1 design_clk_o
*2 dsi_all[0]
*3 dsi_all[10]
*4 dsi_all[11]
*5 dsi_all[12]
*6 dsi_all[13]
*7 dsi_all[14]
*8 dsi_all[15]
*9 dsi_all[16]
*10 dsi_all[17]
*11 dsi_all[18]
*12 dsi_all[19]
*13 dsi_all[1]
*14 dsi_all[20]
*15 dsi_all[21]
*16 dsi_all[22]
*17 dsi_all[23]
*18 dsi_all[24]
*19 dsi_all[25]
*20 dsi_all[26]
*21 dsi_all[27]
*22 dsi_all[2]
*23 dsi_all[3]
*24 dsi_all[4]
*25 dsi_all[5]
*26 dsi_all[6]
*27 dsi_all[7]
*28 dsi_all[8]
*29 dsi_all[9]
*30 dso_6502[0]
*31 dso_6502[10]
*32 dso_6502[11]
*33 dso_6502[12]
*34 dso_6502[13]
*35 dso_6502[14]
*36 dso_6502[15]
*37 dso_6502[16]
*38 dso_6502[17]
*39 dso_6502[18]
*40 dso_6502[19]
*41 dso_6502[1]
*42 dso_6502[20]
*43 dso_6502[21]
*44 dso_6502[22]
*45 dso_6502[23]
*46 dso_6502[24]
*47 dso_6502[25]
*48 dso_6502[26]
*49 dso_6502[2]
*50 dso_6502[3]
*51 dso_6502[4]
*52 dso_6502[5]
*53 dso_6502[6]
*54 dso_6502[7]
*55 dso_6502[8]
*56 dso_6502[9]
*57 dso_LCD[0]
*58 dso_LCD[1]
*59 dso_LCD[2]
*60 dso_LCD[3]
*61 dso_LCD[4]
*62 dso_LCD[5]
*63 dso_LCD[6]
*64 dso_LCD[7]
*65 dso_as1802[0]
*66 dso_as1802[10]
*67 dso_as1802[11]
*68 dso_as1802[12]
*69 dso_as1802[13]
*70 dso_as1802[14]
*71 dso_as1802[15]
*72 dso_as1802[16]
*73 dso_as1802[17]
*74 dso_as1802[18]
*75 dso_as1802[19]
*76 dso_as1802[1]
*77 dso_as1802[20]
*78 dso_as1802[21]
*79 dso_as1802[22]
*80 dso_as1802[23]
*81 dso_as1802[24]
*82 dso_as1802[25]
*83 dso_as1802[26]
*84 dso_as1802[2]
*85 dso_as1802[3]
*86 dso_as1802[4]
*87 dso_as1802[5]
*88 dso_as1802[6]
*89 dso_as1802[7]
*90 dso_as1802[8]
*91 dso_as1802[9]
*92 dso_as2650[0]
*93 dso_as2650[10]
*94 dso_as2650[11]
*95 dso_as2650[12]
*96 dso_as2650[13]
*97 dso_as2650[14]
*98 dso_as2650[15]
*99 dso_as2650[16]
*100 dso_as2650[17]
*101 dso_as2650[18]
*102 dso_as2650[19]
*103 dso_as2650[1]
*104 dso_as2650[20]
*105 dso_as2650[21]
*106 dso_as2650[22]
*107 dso_as2650[23]
*108 dso_as2650[24]
*109 dso_as2650[25]
*110 dso_as2650[26]
*111 dso_as2650[2]
*112 dso_as2650[3]
*113 dso_as2650[4]
*114 dso_as2650[5]
*115 dso_as2650[6]
*116 dso_as2650[7]
*117 dso_as2650[8]
*118 dso_as2650[9]
*119 dso_as512512512[0]
*120 dso_as512512512[10]
*121 dso_as512512512[11]
*122 dso_as512512512[12]
*123 dso_as512512512[13]
*124 dso_as512512512[14]
*125 dso_as512512512[15]
*126 dso_as512512512[16]
*127 dso_as512512512[17]
*128 dso_as512512512[18]
*129 dso_as512512512[19]
*130 dso_as512512512[1]
*131 dso_as512512512[20]
*132 dso_as512512512[21]
*133 dso_as512512512[22]
*134 dso_as512512512[23]
*135 dso_as512512512[24]
*136 dso_as512512512[25]
*137 dso_as512512512[26]
*138 dso_as512512512[27]
*139 dso_as512512512[2]
*140 dso_as512512512[3]
*141 dso_as512512512[4]
*142 dso_as512512512[5]
*143 dso_as512512512[6]
*144 dso_as512512512[7]
*145 dso_as512512512[8]
*146 dso_as512512512[9]
*147 dso_as5401[0]
*148 dso_as5401[10]
*149 dso_as5401[11]
*150 dso_as5401[12]
*151 dso_as5401[13]
*152 dso_as5401[14]
*153 dso_as5401[15]
*154 dso_as5401[16]
*155 dso_as5401[17]
*156 dso_as5401[18]
*157 dso_as5401[19]
*158 dso_as5401[1]
*159 dso_as5401[20]
*160 dso_as5401[21]
*161 dso_as5401[22]
*162 dso_as5401[23]
*163 dso_as5401[24]
*164 dso_as5401[25]
*165 dso_as5401[26]
*166 dso_as5401[2]
*167 dso_as5401[3]
*168 dso_as5401[4]
*169 dso_as5401[5]
*170 dso_as5401[6]
*171 dso_as5401[7]
*172 dso_as5401[8]
*173 dso_as5401[9]
*174 dso_counter[0]
*175 dso_counter[10]
*176 dso_counter[11]
*177 dso_counter[1]
*178 dso_counter[2]
*179 dso_counter[3]
*180 dso_counter[4]
*181 dso_counter[5]
*182 dso_counter[6]
*183 dso_counter[7]
*184 dso_counter[8]
*185 dso_counter[9]
*186 dso_diceroll[0]
*187 dso_diceroll[1]
*188 dso_diceroll[2]
*189 dso_diceroll[3]
*190 dso_diceroll[4]
*191 dso_diceroll[5]
*192 dso_diceroll[6]
*193 dso_diceroll[7]
*194 dso_mc14500[0]
*195 dso_mc14500[1]
*196 dso_mc14500[2]
*197 dso_mc14500[3]
*198 dso_mc14500[4]
*199 dso_mc14500[5]
*200 dso_mc14500[6]
*201 dso_mc14500[7]
*202 dso_mc14500[8]
*203 dso_multiplier[0]
*204 dso_multiplier[1]
*205 dso_multiplier[2]
*206 dso_multiplier[3]
*207 dso_multiplier[4]
*208 dso_multiplier[5]
*209 dso_multiplier[6]
*210 dso_multiplier[7]
*211 dso_posit[0]
*212 dso_posit[1]
*213 dso_posit[2]
*214 dso_posit[3]
*215 dso_tbb1143[0]
*216 dso_tbb1143[1]
*217 dso_tbb1143[2]
*218 dso_tbb1143[3]
*219 dso_tbb1143[4]
*220 dso_tbb1143[5]
*221 dso_tbb1143[6]
*222 dso_tbb1143[7]
*223 dso_tune
*224 io_in[0]
*225 io_in[10]
*226 io_in[11]
*227 io_in[12]
*228 io_in[13]
*229 io_in[14]
*230 io_in[15]
*231 io_in[16]
*232 io_in[17]
*233 io_in[18]
*234 io_in[19]
*235 io_in[1]
*236 io_in[20]
*237 io_in[21]
*238 io_in[22]
*239 io_in[23]
*240 io_in[24]
*241 io_in[25]
*242 io_in[26]
*243 io_in[27]
*244 io_in[28]
*245 io_in[29]
*246 io_in[2]
*247 io_in[30]
*248 io_in[31]
*249 io_in[32]
*250 io_in[33]
*251 io_in[34]
*252 io_in[35]
*253 io_in[36]
*254 io_in[37]
*255 io_in[3]
*256 io_in[4]
*257 io_in[5]
*258 io_in[6]
*259 io_in[7]
*260 io_in[8]
*261 io_in[9]
*262 io_oeb[0]
*263 net496
*264 io_oeb[11]
*265 io_oeb[12]
*266 io_oeb[13]
*267 io_oeb[14]
*268 io_oeb[15]
*269 io_oeb[16]
*270 io_oeb[17]
*271 io_oeb[18]
*272 io_oeb[19]
*273 net477
*274 io_oeb[20]
*275 io_oeb[21]
*276 io_oeb[22]
*277 io_oeb[23]
*278 io_oeb[24]
*279 io_oeb[25]
*280 io_oeb[26]
*281 io_oeb[27]
*282 io_oeb[28]
*283 io_oeb[29]
*284 net478
*285 io_oeb[30]
*286 io_oeb[31]
*287 io_oeb[32]
*288 io_oeb[33]
*289 io_oeb[34]
*290 io_oeb[35]
*291 io_oeb[36]
*292 io_oeb[37]
*293 net479
*294 net480
*295 net491
*296 net492
*297 net493
*298 net494
*299 net495
*300 io_out[0]
*301 net486
*302 io_out[11]
*303 io_out[12]
*304 io_out[13]
*305 io_out[14]
*306 io_out[15]
*307 io_out[16]
*308 io_out[17]
*309 io_out[18]
*310 io_out[19]
*311 io_out[1]
*312 io_out[20]
*313 io_out[21]
*314 io_out[22]
*315 io_out[23]
*316 io_out[24]
*317 io_out[25]
*318 io_out[26]
*319 io_out[27]
*320 io_out[28]
*321 io_out[29]
*322 io_out[2]
*323 io_out[30]
*324 io_out[31]
*325 io_out[32]
*326 io_out[33]
*327 io_out[34]
*328 io_out[35]
*329 io_out[36]
*330 io_out[37]
*331 io_out[3]
*332 io_out[4]
*333 net481
*334 net482
*335 net483
*336 net484
*337 net485
*338 oeb_6502
*339 oeb_as1802
*340 oeb_as2650
*341 oeb_as512512512
*342 oeb_as5401
*343 oeb_mc14500
*344 rst_6502
*345 rst_LCD
*346 rst_as1802
*347 rst_as2650
*348 rst_as512512512
*349 rst_as5401
*350 rst_counter
*351 rst_diceroll
*352 rst_mc14500
*353 rst_posit
*354 rst_tbb1143
*355 rst_tune
*358 wb_clk_i
*359 wb_rst_i
*360 wbs_ack_o
*361 wbs_adr_i[0]
*362 wbs_adr_i[10]
*363 wbs_adr_i[11]
*364 wbs_adr_i[12]
*365 wbs_adr_i[13]
*366 wbs_adr_i[14]
*367 wbs_adr_i[15]
*368 wbs_adr_i[16]
*369 wbs_adr_i[17]
*370 wbs_adr_i[18]
*371 wbs_adr_i[19]
*372 wbs_adr_i[1]
*373 wbs_adr_i[20]
*374 wbs_adr_i[21]
*375 wbs_adr_i[22]
*376 wbs_adr_i[23]
*377 wbs_adr_i[24]
*378 wbs_adr_i[25]
*379 wbs_adr_i[26]
*380 wbs_adr_i[27]
*381 wbs_adr_i[28]
*382 wbs_adr_i[29]
*383 wbs_adr_i[2]
*384 wbs_adr_i[30]
*385 wbs_adr_i[31]
*386 wbs_adr_i[3]
*387 wbs_adr_i[4]
*388 wbs_adr_i[5]
*389 wbs_adr_i[6]
*390 wbs_adr_i[7]
*391 wbs_adr_i[8]
*392 wbs_adr_i[9]
*393 wbs_cyc_i
*394 wbs_dat_i[0]
*395 wbs_dat_i[10]
*396 wbs_dat_i[11]
*397 wbs_dat_i[12]
*398 wbs_dat_i[13]
*399 wbs_dat_i[14]
*400 wbs_dat_i[15]
*401 wbs_dat_i[16]
*402 wbs_dat_i[17]
*403 wbs_dat_i[18]
*404 wbs_dat_i[19]
*405 wbs_dat_i[1]
*406 wbs_dat_i[20]
*407 wbs_dat_i[21]
*408 wbs_dat_i[22]
*409 wbs_dat_i[23]
*410 wbs_dat_i[24]
*411 wbs_dat_i[25]
*412 wbs_dat_i[26]
*413 wbs_dat_i[27]
*414 wbs_dat_i[28]
*415 wbs_dat_i[29]
*416 wbs_dat_i[2]
*417 wbs_dat_i[30]
*418 wbs_dat_i[31]
*419 wbs_dat_i[3]
*420 wbs_dat_i[4]
*421 wbs_dat_i[5]
*422 wbs_dat_i[6]
*423 wbs_dat_i[7]
*424 wbs_dat_i[8]
*425 wbs_dat_i[9]
*426 wbs_dat_o[0]
*427 wbs_dat_o[10]
*428 wbs_dat_o[11]
*429 wbs_dat_o[12]
*430 wbs_dat_o[13]
*431 wbs_dat_o[14]
*432 wbs_dat_o[15]
*433 wbs_dat_o[16]
*434 wbs_dat_o[17]
*435 wbs_dat_o[18]
*436 wbs_dat_o[19]
*437 wbs_dat_o[1]
*438 wbs_dat_o[20]
*439 wbs_dat_o[21]
*440 wbs_dat_o[22]
*441 wbs_dat_o[23]
*442 wbs_dat_o[24]
*443 wbs_dat_o[25]
*444 wbs_dat_o[26]
*445 wbs_dat_o[27]
*446 net487
*447 net488
*448 wbs_dat_o[2]
*449 net489
*450 net490
*451 wbs_dat_o[3]
*452 wbs_dat_o[4]
*453 wbs_dat_o[5]
*454 wbs_dat_o[6]
*455 wbs_dat_o[7]
*456 wbs_dat_o[8]
*457 wbs_dat_o[9]
*458 wbs_stb_i
*459 wbs_we_i
*460 _0000_
*461 _0001_
*462 _0002_
*463 _0003_
*464 _0004_
*465 _0005_
*466 _0006_
*467 _0007_
*468 _0008_
*469 _0009_
*470 _0010_
*471 _0011_
*472 _0012_
*473 _0013_
*474 _0014_
*475 _0015_
*476 _0016_
*477 _0017_
*478 _0018_
*479 _0019_
*480 _0020_
*481 _0021_
*482 _0022_
*483 _0023_
*484 _0024_
*485 _0025_
*486 _0026_
*487 _0027_
*488 _0028_
*489 _0029_
*490 _0030_
*491 _0031_
*492 _0032_
*493 _0033_
*494 _0034_
*495 _0035_
*496 _0036_
*497 _0037_
*498 _0038_
*499 _0039_
*500 _0040_
*501 _0041_
*502 _0042_
*503 _0043_
*504 _0044_
*505 _0045_
*506 _0046_
*507 _0047_
*508 _0048_
*509 _0049_
*510 _0050_
*511 _0051_
*512 _0052_
*513 _0053_
*514 _0054_
*515 _0055_
*516 _0056_
*517 _0057_
*518 _0058_
*519 _0059_
*520 _0060_
*521 _0061_
*522 _0062_
*523 _0063_
*524 _0064_
*525 _0065_
*526 _0066_
*527 _0067_
*528 _0068_
*529 _0069_
*530 _0070_
*531 _0071_
*532 _0072_
*533 _0073_
*534 _0074_
*535 _0075_
*536 _0076_
*537 _0077_
*538 _0078_
*539 _0079_
*540 _0080_
*541 _0081_
*542 _0082_
*543 _0083_
*544 _0084_
*545 _0085_
*546 _0086_
*547 _0087_
*548 _0088_
*549 _0089_
*550 _0090_
*551 _0091_
*552 _0092_
*553 _0093_
*554 _0094_
*555 _0095_
*556 _0096_
*557 _0097_
*558 _0098_
*559 _0099_
*560 _0100_
*561 _0101_
*562 _0102_
*563 _0103_
*564 _0104_
*565 _0105_
*566 _0106_
*567 _0107_
*568 _0108_
*569 _0109_
*570 _0110_
*571 _0111_
*572 _0112_
*573 _0113_
*574 _0114_
*575 _0115_
*576 _0116_
*577 _0117_
*578 _0118_
*579 _0119_
*580 _0120_
*581 _0121_
*582 _0122_
*583 _0123_
*584 _0124_
*585 _0125_
*586 _0126_
*587 _0127_
*588 _0128_
*589 _0129_
*590 _0130_
*591 _0131_
*592 _0132_
*593 _0133_
*594 _0134_
*595 _0135_
*596 _0136_
*597 _0137_
*598 _0138_
*599 _0139_
*600 _0140_
*601 _0141_
*602 _0142_
*603 _0143_
*604 _0144_
*605 _0145_
*606 _0146_
*607 _0147_
*608 _0148_
*609 _0149_
*610 _0150_
*611 _0151_
*612 _0152_
*613 _0153_
*614 _0154_
*615 _0155_
*616 _0156_
*617 _0157_
*618 _0158_
*619 _0159_
*620 _0160_
*621 _0161_
*622 _0162_
*623 _0163_
*624 _0164_
*625 _0165_
*626 _0166_
*627 _0167_
*628 _0168_
*629 _0169_
*630 _0170_
*631 _0171_
*632 _0172_
*633 _0173_
*634 _0174_
*635 _0175_
*636 _0176_
*637 _0177_
*638 _0178_
*639 _0179_
*640 _0180_
*641 _0181_
*642 _0182_
*643 _0183_
*644 _0184_
*645 _0185_
*646 _0186_
*647 _0187_
*648 _0188_
*649 _0189_
*650 _0190_
*651 _0191_
*652 _0192_
*653 _0193_
*654 _0194_
*655 _0195_
*656 _0196_
*657 _0197_
*658 _0198_
*659 _0199_
*660 _0200_
*661 _0201_
*662 _0202_
*663 _0203_
*664 _0204_
*665 _0205_
*666 _0206_
*667 _0207_
*668 _0208_
*669 _0209_
*670 _0210_
*671 _0211_
*672 _0212_
*673 _0213_
*674 _0214_
*675 _0215_
*676 _0216_
*677 _0217_
*678 _0218_
*679 _0219_
*680 _0220_
*681 _0221_
*682 _0222_
*683 _0223_
*684 _0224_
*685 _0225_
*686 _0226_
*687 _0227_
*688 _0228_
*689 _0229_
*690 _0230_
*691 _0231_
*692 _0232_
*693 _0233_
*694 _0234_
*695 _0235_
*696 _0236_
*697 _0237_
*698 _0238_
*699 _0239_
*700 _0240_
*701 _0241_
*702 _0242_
*703 _0243_
*704 _0244_
*705 _0245_
*706 _0246_
*707 _0247_
*708 _0248_
*709 _0249_
*710 _0250_
*711 _0251_
*712 _0252_
*713 _0253_
*714 _0254_
*715 _0255_
*716 _0256_
*717 _0257_
*718 _0258_
*719 _0259_
*720 _0260_
*721 _0261_
*722 _0262_
*723 _0263_
*724 _0264_
*725 _0265_
*726 _0266_
*727 _0267_
*728 _0268_
*729 _0269_
*730 _0270_
*731 _0271_
*732 _0272_
*733 _0273_
*734 _0274_
*735 _0275_
*736 _0276_
*737 _0277_
*738 _0278_
*739 _0279_
*740 _0280_
*741 _0281_
*742 _0282_
*743 _0283_
*744 _0284_
*745 _0285_
*746 _0286_
*747 _0287_
*748 _0288_
*749 _0289_
*750 _0290_
*751 _0291_
*752 _0292_
*753 _0293_
*754 _0294_
*755 _0295_
*756 _0296_
*757 _0297_
*758 _0298_
*759 _0299_
*760 _0300_
*761 _0301_
*762 _0302_
*763 _0303_
*764 _0304_
*765 _0305_
*766 _0306_
*767 _0307_
*768 _0308_
*769 _0309_
*770 _0310_
*771 _0311_
*772 _0312_
*773 _0313_
*774 _0314_
*775 _0315_
*776 _0316_
*777 _0317_
*778 _0318_
*779 _0319_
*780 _0320_
*781 _0321_
*782 _0322_
*783 _0323_
*784 _0324_
*785 _0325_
*786 _0326_
*787 _0327_
*788 _0328_
*789 _0329_
*790 _0330_
*791 _0331_
*792 _0332_
*793 _0333_
*794 _0334_
*795 _0335_
*796 _0336_
*797 _0337_
*798 _0338_
*799 _0339_
*800 _0340_
*801 _0341_
*802 _0342_
*803 _0343_
*804 _0344_
*805 _0345_
*806 _0346_
*807 _0347_
*808 _0348_
*809 _0349_
*810 _0350_
*811 _0351_
*812 _0352_
*813 _0353_
*814 _0354_
*815 _0355_
*816 _0356_
*817 _0357_
*818 _0358_
*819 _0359_
*820 _0360_
*821 _0361_
*822 _0362_
*823 _0363_
*824 _0364_
*825 _0365_
*826 _0366_
*827 _0367_
*828 _0368_
*829 _0369_
*830 _0370_
*831 _0371_
*832 _0372_
*833 _0373_
*834 _0374_
*835 _0375_
*836 _0376_
*837 _0377_
*838 _0378_
*839 _0379_
*840 _0380_
*841 _0381_
*842 _0382_
*843 _0383_
*844 _0384_
*845 _0385_
*846 _0386_
*847 _0387_
*848 _0388_
*849 _0389_
*850 _0390_
*851 _0391_
*852 _0392_
*853 _0393_
*854 _0394_
*855 _0395_
*856 _0396_
*857 _0397_
*858 _0398_
*859 _0399_
*860 _0400_
*861 _0401_
*862 _0402_
*863 _0403_
*864 _0404_
*865 _0405_
*866 _0406_
*867 _0407_
*868 _0408_
*869 _0409_
*870 _0410_
*871 _0411_
*872 _0412_
*873 _0413_
*874 _0414_
*875 _0415_
*876 _0416_
*877 _0417_
*878 _0418_
*879 _0419_
*880 _0420_
*881 _0421_
*882 _0422_
*883 _0423_
*884 _0424_
*885 _0425_
*886 _0426_
*887 _0427_
*888 _0428_
*889 _0429_
*890 _0430_
*891 _0431_
*892 _0432_
*893 _0433_
*894 _0434_
*895 _0435_
*896 _0436_
*897 _0437_
*898 _0438_
*899 _0439_
*900 _0440_
*901 _0441_
*902 _0442_
*903 _0443_
*904 _0444_
*905 _0445_
*906 clknet_0_wb_clk_i
*907 clknet_3_0__leaf_wb_clk_i
*908 clknet_3_1__leaf_wb_clk_i
*909 clknet_3_2__leaf_wb_clk_i
*910 clknet_3_3__leaf_wb_clk_i
*911 clknet_3_4__leaf_wb_clk_i
*912 clknet_3_5__leaf_wb_clk_i
*913 clknet_3_6__leaf_wb_clk_i
*914 clknet_3_7__leaf_wb_clk_i
*915 design_addr\[0\]
*916 design_addr\[1\]
*917 design_addr\[2\]
*918 design_addr\[3\]
*919 net1
*920 net10
*921 net100
*922 net101
*923 net102
*924 net103
*925 net104
*926 net105
*927 net106
*928 net107
*929 net108
*930 net109
*931 net11
*932 net110
*933 net111
*934 net112
*935 net113
*936 net114
*937 net115
*938 net116
*939 net117
*940 net118
*941 net119
*942 net12
*943 net120
*944 net121
*945 net122
*946 net123
*947 net124
*948 net125
*949 net126
*950 net127
*951 net128
*952 net129
*953 net13
*954 net130
*955 net131
*956 net132
*957 net133
*958 net134
*959 net135
*960 net136
*961 net137
*962 net138
*963 net139
*964 net14
*965 net140
*966 net141
*967 net142
*968 net143
*969 net144
*970 net145
*971 net146
*972 net147
*973 net148
*974 net149
*975 net15
*976 net150
*977 net151
*978 net152
*979 net153
*980 net154
*981 net155
*982 net156
*983 net157
*984 net158
*985 net159
*986 net16
*987 net160
*988 net161
*989 net162
*990 net163
*991 net164
*992 net165
*993 net166
*994 net167
*995 net168
*996 net169
*997 net17
*998 net170
*999 net171
*1000 net172
*1001 net173
*1002 net174
*1003 net175
*1004 net176
*1005 net177
*1006 net178
*1007 net179
*1008 net18
*1009 net180
*1010 net181
*1011 net182
*1012 net183
*1013 net184
*1014 net185
*1015 net186
*1016 net187
*1017 net188
*1018 net189
*1019 net19
*1020 net190
*1021 net191
*1022 net192
*1023 net193
*1024 net194
*1025 net195
*1026 net196
*1027 net197
*1028 net198
*1029 net199
*1030 net2
*1031 net20
*1032 net200
*1033 net201
*1034 net202
*1035 net203
*1036 net204
*1037 net205
*1038 net206
*1039 net207
*1040 net208
*1041 net209
*1042 net21
*1043 net210
*1044 net211
*1045 net212
*1046 net213
*1047 net214
*1048 net215
*1049 net216
*1050 net217
*1051 net218
*1052 net219
*1053 net22
*1054 net220
*1055 net221
*1056 net222
*1057 net223
*1058 net224
*1059 net225
*1060 net226
*1061 net227
*1062 net228
*1063 net229
*1064 net23
*1065 net230
*1066 net231
*1067 net232
*1068 net233
*1069 net234
*1070 net235
*1071 net236
*1072 net237
*1073 net238
*1074 net239
*1075 net24
*1076 net240
*1077 net241
*1078 net242
*1079 net243
*1080 net244
*1081 net245
*1082 net246
*1083 net247
*1084 net248
*1085 net249
*1086 net25
*1087 net250
*1088 net251
*1089 net252
*1090 net253
*1091 net254
*1092 net255
*1093 net256
*1094 net257
*1095 net258
*1096 net259
*1097 net26
*1098 net260
*1099 net261
*1100 net262
*1101 net263
*1102 net264
*1103 net265
*1104 net266
*1105 net267
*1106 net268
*1107 net269
*1108 net27
*1109 net270
*1110 net271
*1111 net272
*1112 net273
*1113 net274
*1114 net275
*1115 net276
*1116 net277
*1117 net278
*1118 net279
*1119 net28
*1120 net280
*1121 net281
*1122 net282
*1123 net283
*1124 net284
*1125 net285
*1126 net286
*1127 net287
*1128 net288
*1129 net289
*1130 net29
*1131 net290
*1132 net291
*1133 net292
*1134 net293
*1135 net294
*1136 net295
*1137 net296
*1138 net297
*1139 net298
*1140 net299
*1141 net3
*1142 net30
*1143 net300
*1144 net301
*1145 net302
*1146 net303
*1147 net304
*1148 net305
*1149 net306
*1150 net307
*1151 net308
*1152 net309
*1153 net31
*1154 net310
*1155 net311
*1156 net312
*1157 net313
*1158 net314
*1159 net315
*1160 net316
*1161 net317
*1162 net318
*1163 net319
*1164 net32
*1165 net320
*1166 net321
*1167 net322
*1168 net323
*1169 net324
*1170 net325
*1171 net326
*1172 net327
*1173 net328
*1174 net329
*1175 net33
*1176 net330
*1177 net331
*1178 net332
*1179 net333
*1180 net334
*1181 net335
*1182 net336
*1183 net337
*1184 net338
*1185 net339
*1186 net34
*1187 net340
*1188 net341
*1189 net342
*1190 net343
*1191 net344
*1192 net345
*1193 net346
*1194 net347
*1195 net348
*1196 net349
*1197 net35
*1198 net350
*1199 net351
*1200 net352
*1201 net353
*1202 net354
*1203 net355
*1204 net356
*1205 net357
*1206 net358
*1207 net359
*1208 net36
*1209 net360
*1210 net361
*1211 net362
*1212 net363
*1213 net364
*1214 net365
*1215 net366
*1216 net367
*1217 net368
*1218 net369
*1219 net37
*1220 net370
*1221 net371
*1222 net372
*1223 net373
*1224 net374
*1225 net375
*1226 net376
*1227 net377
*1228 net378
*1229 net379
*1230 net38
*1231 net380
*1232 net381
*1233 net382
*1234 net383
*1235 net384
*1236 net385
*1237 net386
*1238 net387
*1239 net388
*1240 net389
*1241 net39
*1242 net390
*1243 net391
*1244 net392
*1245 net393
*1246 net394
*1247 net395
*1248 net396
*1249 net397
*1250 net398
*1251 net399
*1252 net4
*1253 net40
*1254 net400
*1255 net401
*1256 net402
*1257 net403
*1258 net404
*1259 net405
*1260 net406
*1261 net407
*1262 net408
*1263 net409
*1264 net41
*1265 net410
*1266 net411
*1267 net412
*1268 net413
*1269 net414
*1270 net415
*1271 net416
*1272 net417
*1273 net418
*1274 net419
*1275 net42
*1276 net420
*1277 net421
*1278 net422
*1279 net423
*1280 net424
*1281 net425
*1282 net426
*1283 net427
*1284 net428
*1285 net429
*1286 net43
*1287 net430
*1288 net431
*1289 net432
*1290 net433
*1291 net434
*1292 net435
*1293 net436
*1294 net437
*1295 net438
*1296 net439
*1297 net44
*1298 net440
*1299 net441
*1300 net442
*1301 net443
*1302 net444
*1303 net445
*1304 net446
*1305 net447
*1306 net448
*1307 net449
*1308 net45
*1309 net450
*1310 net451
*1311 net452
*1312 net453
*1313 net454
*1314 net455
*1315 net456
*1316 net457
*1317 net458
*1318 net459
*1319 net46
*1320 net460
*1321 net461
*1322 net462
*1323 net463
*1324 net464
*1325 net465
*1326 net466
*1327 net467
*1328 net468
*1329 net469
*1330 net47
*1331 net470
*1332 net471
*1333 net472
*1334 net473
*1335 net474
*1336 net475
*1337 net476
*1338 net48
*1339 net49
*1340 net497
*1341 net498
*1342 net499
*1343 net5
*1344 net50
*1345 net500
*1346 net501
*1347 net502
*1348 net503
*1349 net504
*1350 net505
*1351 net506
*1352 net507
*1353 net508
*1354 net509
*1355 net51
*1356 net510
*1357 net511
*1358 net512
*1359 net513
*1360 net514
*1361 net515
*1362 net516
*1363 net517
*1364 net518
*1365 net519
*1366 net52
*1367 net520
*1368 net521
*1369 net522
*1370 net523
*1371 net524
*1372 net525
*1373 net526
*1374 net527
*1375 net528
*1376 net529
*1377 net53
*1378 net530
*1379 net531
*1380 net532
*1381 net533
*1382 net534
*1383 net535
*1384 net536
*1385 net537
*1386 net538
*1387 net539
*1388 net54
*1389 net540
*1390 net541
*1391 net542
*1392 net543
*1393 net544
*1394 net545
*1395 net546
*1396 net547
*1397 net548
*1398 net549
*1399 net55
*1400 net550
*1401 net551
*1402 net552
*1403 net553
*1404 net554
*1405 net555
*1406 net556
*1407 net557
*1408 net558
*1409 net559
*1410 net56
*1411 net560
*1412 net561
*1413 net562
*1414 net563
*1415 net564
*1416 net565
*1417 net566
*1418 net567
*1419 net568
*1420 net569
*1421 net57
*1422 net58
*1423 net59
*1424 net6
*1425 net60
*1426 net61
*1427 net62
*1428 net63
*1429 net64
*1430 net65
*1431 net66
*1432 net67
*1433 net68
*1434 net69
*1435 net7
*1436 net70
*1437 net71
*1438 net72
*1439 net73
*1440 net74
*1441 net75
*1442 net76
*1443 net77
*1444 net78
*1445 net79
*1446 net8
*1447 net80
*1448 net81
*1449 net82
*1450 net83
*1451 net84
*1452 net85
*1453 net86
*1454 net87
*1455 net88
*1456 net89
*1457 net9
*1458 net90
*1459 net91
*1460 net92
*1461 net93
*1462 net94
*1463 net95
*1464 net96
*1465 net97
*1466 net98
*1467 net99
*1468 wb_clk_override
*1469 wb_counter\[0\]
*1470 wb_counter\[10\]
*1471 wb_counter\[11\]
*1472 wb_counter\[12\]
*1473 wb_counter\[13\]
*1474 wb_counter\[14\]
*1475 wb_counter\[15\]
*1476 wb_counter\[16\]
*1477 wb_counter\[17\]
*1478 wb_counter\[18\]
*1479 wb_counter\[19\]
*1480 wb_counter\[20\]
*1481 wb_counter\[21\]
*1482 wb_counter\[22\]
*1483 wb_counter\[23\]
*1484 wb_counter\[5\]
*1485 wb_counter\[6\]
*1486 wb_counter\[7\]
*1487 wb_counter\[8\]
*1488 wb_counter\[9\]
*1489 wb_design_addr_override\[0\]
*1490 wb_design_addr_override\[1\]
*1491 wb_design_addr_override\[2\]
*1492 wb_design_addr_override\[3\]
*1493 wb_feedback_delay
*1494 wb_io_override\[0\]
*1495 wb_io_override\[10\]
*1496 wb_io_override\[11\]
*1497 wb_io_override\[12\]
*1498 wb_io_override\[13\]
*1499 wb_io_override\[14\]
*1500 wb_io_override\[15\]
*1501 wb_io_override\[16\]
*1502 wb_io_override\[17\]
*1503 wb_io_override\[18\]
*1504 wb_io_override\[19\]
*1505 wb_io_override\[1\]
*1506 wb_io_override\[20\]
*1507 wb_io_override\[21\]
*1508 wb_io_override\[22\]
*1509 wb_io_override\[23\]
*1510 wb_io_override\[24\]
*1511 wb_io_override\[25\]
*1512 wb_io_override\[26\]
*1513 wb_io_override\[27\]
*1514 wb_io_override\[2\]
*1515 wb_io_override\[3\]
*1516 wb_io_override\[4\]
*1517 wb_io_override\[5\]
*1518 wb_io_override\[6\]
*1519 wb_io_override\[7\]
*1520 wb_io_override\[8\]
*1521 wb_io_override\[9\]
*1522 wb_override
*1523 wb_rst_override
*1524 wb_single_step
*1525 ANTENNA_1
*1526 ANTENNA_10
*1527 ANTENNA_11
*1528 ANTENNA_12
*1529 ANTENNA_13
*1530 ANTENNA_14
*1531 ANTENNA_15
*1532 ANTENNA_16
*1533 ANTENNA_17
*1534 ANTENNA_18
*1535 ANTENNA_19
*1536 ANTENNA_2
*1537 ANTENNA_20
*1538 ANTENNA_21
*1539 ANTENNA_22
*1540 ANTENNA_23
*1541 ANTENNA_24
*1542 ANTENNA_25
*1543 ANTENNA_26
*1544 ANTENNA_27
*1545 ANTENNA_28
*1546 ANTENNA_29
*1547 ANTENNA_3
*1548 ANTENNA_4
*1549 ANTENNA_5
*1550 ANTENNA_6
*1551 ANTENNA_7
*1552 ANTENNA_8
*1553 ANTENNA_9
*1554 FILLER_0_104
*1555 FILLER_0_11
*1556 FILLER_0_113
*1557 FILLER_0_117
*1558 FILLER_0_122
*1559 FILLER_0_130
*1560 FILLER_0_138
*1561 FILLER_0_141
*1562 FILLER_0_146
*1563 FILLER_0_156
*1564 FILLER_0_166
*1565 FILLER_0_169
*1566 FILLER_0_174
*1567 FILLER_0_184
*1568 FILLER_0_194
*1569 FILLER_0_197
*1570 FILLER_0_202
*1571 FILLER_0_212
*1572 FILLER_0_222
*1573 FILLER_0_225
*1574 FILLER_0_23
*1575 FILLER_0_230
*1576 FILLER_0_240
*1577 FILLER_0_250
*1578 FILLER_0_253
*1579 FILLER_0_258
*1580 FILLER_0_268
*1581 FILLER_0_27
*1582 FILLER_0_278
*1583 FILLER_0_281
*1584 FILLER_0_289
*1585 FILLER_0_29
*1586 FILLER_0_296
*1587 FILLER_0_3
*1588 FILLER_0_306
*1589 FILLER_0_309
*1590 FILLER_0_315
*1591 FILLER_0_322
*1592 FILLER_0_332
*1593 FILLER_0_337
*1594 FILLER_0_345
*1595 FILLER_0_355
*1596 FILLER_0_363
*1597 FILLER_0_365
*1598 FILLER_0_373
*1599 FILLER_0_383
*1600 FILLER_0_391
*1601 FILLER_0_393
*1602 FILLER_0_401
*1603 FILLER_0_41
*1604 FILLER_0_411
*1605 FILLER_0_419
*1606 FILLER_0_421
*1607 FILLER_0_429
*1608 FILLER_0_439
*1609 FILLER_0_447
*1610 FILLER_0_449
*1611 FILLER_0_457
*1612 FILLER_0_46
*1613 FILLER_0_470
*1614 FILLER_0_477
*1615 FILLER_0_487
*1616 FILLER_0_497
*1617 FILLER_0_503
*1618 FILLER_0_505
*1619 FILLER_0_513
*1620 FILLER_0_523
*1621 FILLER_0_531
*1622 FILLER_0_533
*1623 FILLER_0_54
*1624 FILLER_0_541
*1625 FILLER_0_551
*1626 FILLER_0_559
*1627 FILLER_0_561
*1628 FILLER_0_567
*1629 FILLER_0_57
*1630 FILLER_0_586
*1631 FILLER_0_589
*1632 FILLER_0_595
*1633 FILLER_0_603
*1634 FILLER_0_607
*1635 FILLER_0_61
*1636 FILLER_0_614
*1637 FILLER_0_617
*1638 FILLER_0_623
*1639 FILLER_0_66
*1640 FILLER_0_74
*1641 FILLER_0_82
*1642 FILLER_0_85
*1643 FILLER_0_89
*1644 FILLER_0_94
*1645 FILLER_100_109
*1646 FILLER_100_11
*1647 FILLER_100_121
*1648 FILLER_100_133
*1649 FILLER_100_139
*1650 FILLER_100_141
*1651 FILLER_100_153
*1652 FILLER_100_165
*1653 FILLER_100_177
*1654 FILLER_100_189
*1655 FILLER_100_195
*1656 FILLER_100_197
*1657 FILLER_100_209
*1658 FILLER_100_221
*1659 FILLER_100_23
*1660 FILLER_100_232
*1661 FILLER_100_244
*1662 FILLER_100_253
*1663 FILLER_100_265
*1664 FILLER_100_27
*1665 FILLER_100_277
*1666 FILLER_100_289
*1667 FILLER_100_29
*1668 FILLER_100_3
*1669 FILLER_100_301
*1670 FILLER_100_307
*1671 FILLER_100_309
*1672 FILLER_100_321
*1673 FILLER_100_333
*1674 FILLER_100_345
*1675 FILLER_100_357
*1676 FILLER_100_363
*1677 FILLER_100_365
*1678 FILLER_100_377
*1679 FILLER_100_389
*1680 FILLER_100_401
*1681 FILLER_100_41
*1682 FILLER_100_413
*1683 FILLER_100_419
*1684 FILLER_100_421
*1685 FILLER_100_433
*1686 FILLER_100_445
*1687 FILLER_100_457
*1688 FILLER_100_474
*1689 FILLER_100_477
*1690 FILLER_100_489
*1691 FILLER_100_501
*1692 FILLER_100_513
*1693 FILLER_100_525
*1694 FILLER_100_53
*1695 FILLER_100_531
*1696 FILLER_100_533
*1697 FILLER_100_545
*1698 FILLER_100_557
*1699 FILLER_100_565
*1700 FILLER_100_582
*1701 FILLER_100_589
*1702 FILLER_100_601
*1703 FILLER_100_613
*1704 FILLER_100_623
*1705 FILLER_100_65
*1706 FILLER_100_77
*1707 FILLER_100_83
*1708 FILLER_100_85
*1709 FILLER_100_97
*1710 FILLER_101_105
*1711 FILLER_101_111
*1712 FILLER_101_113
*1713 FILLER_101_125
*1714 FILLER_101_137
*1715 FILLER_101_149
*1716 FILLER_101_15
*1717 FILLER_101_161
*1718 FILLER_101_167
*1719 FILLER_101_169
*1720 FILLER_101_181
*1721 FILLER_101_193
*1722 FILLER_101_201
*1723 FILLER_101_205
*1724 FILLER_101_214
*1725 FILLER_101_222
*1726 FILLER_101_225
*1727 FILLER_101_237
*1728 FILLER_101_249
*1729 FILLER_101_261
*1730 FILLER_101_27
*1731 FILLER_101_273
*1732 FILLER_101_279
*1733 FILLER_101_281
*1734 FILLER_101_293
*1735 FILLER_101_3
*1736 FILLER_101_305
*1737 FILLER_101_334
*1738 FILLER_101_337
*1739 FILLER_101_349
*1740 FILLER_101_361
*1741 FILLER_101_369
*1742 FILLER_101_388
*1743 FILLER_101_39
*1744 FILLER_101_393
*1745 FILLER_101_401
*1746 FILLER_101_409
*1747 FILLER_101_421
*1748 FILLER_101_433
*1749 FILLER_101_445
*1750 FILLER_101_449
*1751 FILLER_101_461
*1752 FILLER_101_473
*1753 FILLER_101_485
*1754 FILLER_101_497
*1755 FILLER_101_503
*1756 FILLER_101_505
*1757 FILLER_101_51
*1758 FILLER_101_517
*1759 FILLER_101_529
*1760 FILLER_101_541
*1761 FILLER_101_55
*1762 FILLER_101_553
*1763 FILLER_101_559
*1764 FILLER_101_561
*1765 FILLER_101_57
*1766 FILLER_101_587
*1767 FILLER_101_599
*1768 FILLER_101_611
*1769 FILLER_101_615
*1770 FILLER_101_617
*1771 FILLER_101_623
*1772 FILLER_101_69
*1773 FILLER_101_81
*1774 FILLER_101_93
*1775 FILLER_102_109
*1776 FILLER_102_121
*1777 FILLER_102_133
*1778 FILLER_102_139
*1779 FILLER_102_141
*1780 FILLER_102_153
*1781 FILLER_102_165
*1782 FILLER_102_177
*1783 FILLER_102_189
*1784 FILLER_102_195
*1785 FILLER_102_197
*1786 FILLER_102_209
*1787 FILLER_102_21
*1788 FILLER_102_213
*1789 FILLER_102_231
*1790 FILLER_102_244
*1791 FILLER_102_253
*1792 FILLER_102_263
*1793 FILLER_102_27
*1794 FILLER_102_275
*1795 FILLER_102_287
*1796 FILLER_102_29
*1797 FILLER_102_299
*1798 FILLER_102_3
*1799 FILLER_102_307
*1800 FILLER_102_309
*1801 FILLER_102_321
*1802 FILLER_102_346
*1803 FILLER_102_358
*1804 FILLER_102_365
*1805 FILLER_102_377
*1806 FILLER_102_389
*1807 FILLER_102_401
*1808 FILLER_102_41
*1809 FILLER_102_412
*1810 FILLER_102_421
*1811 FILLER_102_433
*1812 FILLER_102_445
*1813 FILLER_102_457
*1814 FILLER_102_474
*1815 FILLER_102_477
*1816 FILLER_102_489
*1817 FILLER_102_501
*1818 FILLER_102_513
*1819 FILLER_102_525
*1820 FILLER_102_53
*1821 FILLER_102_531
*1822 FILLER_102_533
*1823 FILLER_102_545
*1824 FILLER_102_557
*1825 FILLER_102_569
*1826 FILLER_102_575
*1827 FILLER_102_584
*1828 FILLER_102_589
*1829 FILLER_102_601
*1830 FILLER_102_613
*1831 FILLER_102_623
*1832 FILLER_102_65
*1833 FILLER_102_77
*1834 FILLER_102_83
*1835 FILLER_102_85
*1836 FILLER_102_9
*1837 FILLER_102_97
*1838 FILLER_103_105
*1839 FILLER_103_11
*1840 FILLER_103_111
*1841 FILLER_103_113
*1842 FILLER_103_125
*1843 FILLER_103_137
*1844 FILLER_103_147
*1845 FILLER_103_157
*1846 FILLER_103_165
*1847 FILLER_103_169
*1848 FILLER_103_180
*1849 FILLER_103_192
*1850 FILLER_103_204
*1851 FILLER_103_216
*1852 FILLER_103_225
*1853 FILLER_103_23
*1854 FILLER_103_237
*1855 FILLER_103_249
*1856 FILLER_103_261
*1857 FILLER_103_273
*1858 FILLER_103_279
*1859 FILLER_103_281
*1860 FILLER_103_293
*1861 FILLER_103_3
*1862 FILLER_103_305
*1863 FILLER_103_317
*1864 FILLER_103_329
*1865 FILLER_103_335
*1866 FILLER_103_337
*1867 FILLER_103_349
*1868 FILLER_103_35
*1869 FILLER_103_361
*1870 FILLER_103_373
*1871 FILLER_103_385
*1872 FILLER_103_391
*1873 FILLER_103_393
*1874 FILLER_103_405
*1875 FILLER_103_425
*1876 FILLER_103_437
*1877 FILLER_103_445
*1878 FILLER_103_449
*1879 FILLER_103_461
*1880 FILLER_103_47
*1881 FILLER_103_473
*1882 FILLER_103_485
*1883 FILLER_103_497
*1884 FILLER_103_503
*1885 FILLER_103_505
*1886 FILLER_103_517
*1887 FILLER_103_529
*1888 FILLER_103_541
*1889 FILLER_103_55
*1890 FILLER_103_553
*1891 FILLER_103_559
*1892 FILLER_103_561
*1893 FILLER_103_57
*1894 FILLER_103_573
*1895 FILLER_103_585
*1896 FILLER_103_597
*1897 FILLER_103_609