*SPEF "ieee 1481-1999"
*DESIGN "multiplexer"
*DATE "11:11:11 Fri 11 11, 1111"
*VENDOR "OpenRCX"
*PROGRAM "Parallel Extraction"
*VERSION "1.0"
*DESIGN_FLOW "NAME_SCOPE LOCAL" "PIN_CAP NONE"
*DIVIDER /
*DELIMITER :
*BUS_DELIMITER []
*T_UNIT 1 NS
*C_UNIT 1 PF
*R_UNIT 1 OHM
*L_UNIT 1 HENRY

*NAME_MAP
*1 design_clk_o
*2 dsi_all[0]
*3 dsi_all[10]
*4 dsi_all[11]
*5 dsi_all[12]
*6 dsi_all[13]
*7 dsi_all[14]
*8 dsi_all[15]
*9 dsi_all[16]
*10 dsi_all[17]
*11 dsi_all[18]
*12 dsi_all[19]
*13 dsi_all[1]
*14 dsi_all[20]
*15 dsi_all[21]
*16 dsi_all[22]
*17 dsi_all[23]
*18 dsi_all[24]
*19 dsi_all[25]
*20 dsi_all[26]
*21 dsi_all[2]
*22 dsi_all[3]
*23 dsi_all[4]
*24 dsi_all[5]
*25 dsi_all[6]
*26 dsi_all[7]
*27 dsi_all[8]
*28 dsi_all[9]
*29 dso_6502[0]
*30 dso_6502[10]
*31 dso_6502[11]
*32 dso_6502[12]
*33 dso_6502[13]
*34 dso_6502[14]
*35 dso_6502[15]
*36 dso_6502[16]
*37 dso_6502[17]
*38 dso_6502[18]
*39 dso_6502[19]
*40 dso_6502[1]
*41 dso_6502[20]
*42 dso_6502[21]
*43 dso_6502[22]
*44 dso_6502[23]
*45 dso_6502[24]
*46 dso_6502[25]
*47 dso_6502[26]
*48 dso_6502[2]
*49 dso_6502[3]
*50 dso_6502[4]
*51 dso_6502[5]
*52 dso_6502[6]
*53 dso_6502[7]
*54 dso_6502[8]
*55 dso_6502[9]
*56 dso_LCD[0]
*57 dso_LCD[1]
*58 dso_LCD[2]
*59 dso_LCD[3]
*60 dso_LCD[4]
*61 dso_LCD[5]
*62 dso_LCD[6]
*63 dso_LCD[7]
*64 dso_as1802[0]
*65 dso_as1802[10]
*66 dso_as1802[11]
*67 dso_as1802[12]
*68 dso_as1802[13]
*69 dso_as1802[14]
*70 dso_as1802[15]
*71 dso_as1802[16]
*72 dso_as1802[17]
*73 dso_as1802[18]
*74 dso_as1802[19]
*75 dso_as1802[1]
*76 dso_as1802[20]
*77 dso_as1802[21]
*78 dso_as1802[22]
*79 dso_as1802[23]
*80 dso_as1802[24]
*81 dso_as1802[25]
*82 dso_as1802[26]
*83 dso_as1802[2]
*84 dso_as1802[3]
*85 dso_as1802[4]
*86 dso_as1802[5]
*87 dso_as1802[6]
*88 dso_as1802[7]
*89 dso_as1802[8]
*90 dso_as1802[9]
*91 dso_as2650[0]
*92 dso_as2650[10]
*93 dso_as2650[11]
*94 dso_as2650[12]
*95 dso_as2650[13]
*96 dso_as2650[14]
*97 dso_as2650[15]
*98 dso_as2650[16]
*99 dso_as2650[17]
*100 dso_as2650[18]
*101 dso_as2650[19]
*102 dso_as2650[1]
*103 dso_as2650[20]
*104 dso_as2650[21]
*105 dso_as2650[22]
*106 dso_as2650[23]
*107 dso_as2650[24]
*108 dso_as2650[25]
*109 dso_as2650[26]
*110 dso_as2650[2]
*111 dso_as2650[3]
*112 dso_as2650[4]
*113 dso_as2650[5]
*114 dso_as2650[6]
*115 dso_as2650[7]
*116 dso_as2650[8]
*117 dso_as2650[9]
*118 dso_as5401[0]
*119 dso_as5401[10]
*120 dso_as5401[11]
*121 dso_as5401[12]
*122 dso_as5401[13]
*123 dso_as5401[14]
*124 dso_as5401[15]
*125 dso_as5401[16]
*126 dso_as5401[17]
*127 dso_as5401[18]
*128 dso_as5401[19]
*129 dso_as5401[1]
*130 dso_as5401[20]
*131 dso_as5401[21]
*132 dso_as5401[22]
*133 dso_as5401[23]
*134 dso_as5401[24]
*135 dso_as5401[25]
*136 dso_as5401[26]
*137 dso_as5401[2]
*138 dso_as5401[3]
*139 dso_as5401[4]
*140 dso_as5401[5]
*141 dso_as5401[6]
*142 dso_as5401[7]
*143 dso_as5401[8]
*144 dso_as5401[9]
*145 dso_counter[0]
*146 dso_counter[10]
*147 dso_counter[11]
*148 dso_counter[1]
*149 dso_counter[2]
*150 dso_counter[3]
*151 dso_counter[4]
*152 dso_counter[5]
*153 dso_counter[6]
*154 dso_counter[7]
*155 dso_counter[8]
*156 dso_counter[9]
*157 dso_diceroll[0]
*158 dso_diceroll[1]
*159 dso_diceroll[2]
*160 dso_diceroll[3]
*161 dso_diceroll[4]
*162 dso_diceroll[5]
*163 dso_diceroll[6]
*164 dso_diceroll[7]
*165 dso_mc14500[0]
*166 dso_mc14500[1]
*167 dso_mc14500[2]
*168 dso_mc14500[3]
*169 dso_mc14500[4]
*170 dso_mc14500[5]
*171 dso_mc14500[6]
*172 dso_mc14500[7]
*173 dso_mc14500[8]
*174 dso_multiplier[0]
*175 dso_multiplier[1]
*176 dso_multiplier[2]
*177 dso_multiplier[3]
*178 dso_multiplier[4]
*179 dso_multiplier[5]
*180 dso_multiplier[6]
*181 dso_multiplier[7]
*182 dso_tbb1143[0]
*183 dso_tbb1143[1]
*184 dso_tbb1143[2]
*185 dso_tbb1143[3]
*186 dso_tbb1143[4]
*187 dso_tbb1143[5]
*188 dso_tbb1143[6]
*189 dso_tbb1143[7]
*190 dso_tune
*191 io_in[0]
*192 io_in[10]
*193 io_in[11]
*194 io_in[12]
*195 io_in[13]
*196 io_in[14]
*197 io_in[15]
*198 io_in[16]
*199 io_in[17]
*200 io_in[18]
*201 io_in[19]
*202 io_in[1]
*203 io_in[20]
*204 io_in[21]
*205 io_in[22]
*206 io_in[23]
*207 io_in[24]
*208 io_in[25]
*209 io_in[26]
*210 io_in[27]
*211 io_in[28]
*212 io_in[29]
*213 io_in[2]
*214 io_in[30]
*215 io_in[31]
*216 io_in[32]
*217 io_in[33]
*218 io_in[34]
*219 io_in[35]
*220 io_in[36]
*221 io_in[37]
*222 io_in[3]
*223 io_in[4]
*224 io_in[5]
*225 io_in[6]
*226 io_in[7]
*227 io_in[8]
*228 io_in[9]
*229 net373
*230 net383
*231 io_oeb[11]
*232 io_oeb[12]
*233 io_oeb[13]
*234 io_oeb[14]
*235 io_oeb[15]
*236 io_oeb[16]
*237 io_oeb[17]
*238 io_oeb[18]
*239 io_oeb[19]
*240 net374
*241 io_oeb[20]
*242 io_oeb[21]
*243 io_oeb[22]
*244 io_oeb[23]
*245 io_oeb[24]
*246 io_oeb[25]
*247 io_oeb[26]
*248 io_oeb[27]
*249 io_oeb[28]
*250 io_oeb[29]
*251 net375
*252 io_oeb[30]
*253 io_oeb[31]
*254 io_oeb[32]
*255 io_oeb[33]
*256 io_oeb[34]
*257 io_oeb[35]
*258 io_oeb[36]
*259 io_oeb[37]
*260 net376
*261 net377
*262 net378
*263 net379
*264 net380
*265 net381
*266 net382
*267 net357
*268 net367
*269 io_out[11]
*270 io_out[12]
*271 io_out[13]
*272 io_out[14]
*273 io_out[15]
*274 io_out[16]
*275 io_out[17]
*276 io_out[18]
*277 io_out[19]
*278 net358
*279 io_out[20]
*280 io_out[21]
*281 io_out[22]
*282 io_out[23]
*283 io_out[24]
*284 io_out[25]
*285 io_out[26]
*286 io_out[27]
*287 io_out[28]
*288 io_out[29]
*289 net359
*290 io_out[30]
*291 io_out[31]
*292 io_out[32]
*293 io_out[33]
*294 io_out[34]
*295 io_out[35]
*296 io_out[36]
*297 io_out[37]
*298 net360
*299 net361
*300 net362
*301 net363
*302 net364
*303 net365
*304 net366
*305 oeb_6502
*306 oeb_as1802
*307 oeb_as2650
*308 oeb_as5401
*309 oeb_mc14500
*310 rst_6502
*311 rst_LCD
*312 rst_as1802
*313 rst_as2650
*314 rst_as5401
*315 rst_counter
*316 rst_diceroll
*317 rst_mc14500
*318 rst_tbb1143
*319 rst_tune
*322 wb_clk_i
*323 wb_rst_i
*324 wbs_ack_o
*325 wbs_adr_i[0]
*326 wbs_adr_i[10]
*327 wbs_adr_i[11]
*328 wbs_adr_i[12]
*329 wbs_adr_i[13]
*330 wbs_adr_i[14]
*331 wbs_adr_i[15]
*332 wbs_adr_i[16]
*333 wbs_adr_i[17]
*334 wbs_adr_i[18]
*335 wbs_adr_i[19]
*336 wbs_adr_i[1]
*337 wbs_adr_i[20]
*338 wbs_adr_i[21]
*339 wbs_adr_i[22]
*340 wbs_adr_i[23]
*341 wbs_adr_i[24]
*342 wbs_adr_i[25]
*343 wbs_adr_i[26]
*344 wbs_adr_i[27]
*345 wbs_adr_i[28]
*346 wbs_adr_i[29]
*347 wbs_adr_i[2]
*348 wbs_adr_i[30]
*349 wbs_adr_i[31]
*350 wbs_adr_i[3]
*351 wbs_adr_i[4]
*352 wbs_adr_i[5]
*353 wbs_adr_i[6]
*354 wbs_adr_i[7]
*355 wbs_adr_i[8]
*356 wbs_adr_i[9]
*357 wbs_cyc_i
*358 wbs_dat_i[0]
*359 wbs_dat_i[10]
*360 wbs_dat_i[11]
*361 wbs_dat_i[12]
*362 wbs_dat_i[13]
*363 wbs_dat_i[14]
*364 wbs_dat_i[15]
*365 wbs_dat_i[16]
*366 wbs_dat_i[17]
*367 wbs_dat_i[18]
*368 wbs_dat_i[19]
*369 wbs_dat_i[1]
*370 wbs_dat_i[20]
*371 wbs_dat_i[21]
*372 wbs_dat_i[22]
*373 wbs_dat_i[23]
*374 wbs_dat_i[24]
*375 wbs_dat_i[25]
*376 wbs_dat_i[26]
*377 wbs_dat_i[27]
*378 wbs_dat_i[28]
*379 wbs_dat_i[29]
*380 wbs_dat_i[2]
*381 wbs_dat_i[30]
*382 wbs_dat_i[31]
*383 wbs_dat_i[3]
*384 wbs_dat_i[4]
*385 wbs_dat_i[5]
*386 wbs_dat_i[6]
*387 wbs_dat_i[7]
*388 wbs_dat_i[8]
*389 wbs_dat_i[9]
*390 wbs_dat_o[0]
*391 wbs_dat_o[10]
*392 wbs_dat_o[11]
*393 wbs_dat_o[12]
*394 wbs_dat_o[13]
*395 wbs_dat_o[14]
*396 wbs_dat_o[15]
*397 wbs_dat_o[16]
*398 wbs_dat_o[17]
*399 wbs_dat_o[18]
*400 wbs_dat_o[19]
*401 wbs_dat_o[1]
*402 wbs_dat_o[20]
*403 wbs_dat_o[21]
*404 wbs_dat_o[22]
*405 wbs_dat_o[23]
*406 wbs_dat_o[24]
*407 wbs_dat_o[25]
*408 wbs_dat_o[26]
*409 net368
*410 net369
*411 net370
*412 wbs_dat_o[2]
*413 net371
*414 net372
*415 wbs_dat_o[3]
*416 wbs_dat_o[4]
*417 wbs_dat_o[5]
*418 wbs_dat_o[6]
*419 wbs_dat_o[7]
*420 wbs_dat_o[8]
*421 wbs_dat_o[9]
*422 wbs_stb_i
*423 wbs_we_i
*424 _0000_
*425 _0001_
*426 _0002_
*427 _0003_
*428 _0004_
*429 _0005_
*430 _0006_
*431 _0007_
*432 _0008_
*433 _0009_
*434 _0010_
*435 _0011_
*436 _0012_
*437 _0013_
*438 _0014_
*439 _0015_
*440 _0016_
*441 _0017_
*442 _0018_
*443 _0019_
*444 _0020_
*445 _0021_
*446 _0022_
*447 _0023_
*448 _0024_
*449 _0025_
*450 _0026_
*451 _0027_
*452 _0028_
*453 _0029_
*454 _0030_
*455 _0031_
*456 _0032_
*457 _0033_
*458 _0034_
*459 _0035_
*460 _0036_
*461 _0037_
*462 _0038_
*463 _0039_
*464 _0040_
*465 _0041_
*466 _0042_
*467 _0043_
*468 _0044_
*469 _0045_
*470 _0046_
*471 _0047_
*472 _0048_
*473 _0049_
*474 _0050_
*475 _0051_
*476 _0052_
*477 _0053_
*478 _0054_
*479 _0055_
*480 _0056_
*481 _0057_
*482 _0058_
*483 _0059_
*484 _0060_
*485 _0061_
*486 _0062_
*487 _0063_
*488 _0064_
*489 _0065_
*490 _0066_
*491 _0067_
*492 _0068_
*493 _0069_
*494 _0070_
*495 _0071_
*496 _0072_
*497 _0073_
*498 _0074_
*499 _0075_
*500 _0076_
*501 _0077_
*502 _0078_
*503 _0079_
*504 _0080_
*505 _0081_
*506 _0082_
*507 _0083_
*508 _0084_
*509 _0085_
*510 _0086_
*511 _0087_
*512 _0088_
*513 _0089_
*514 _0090_
*515 _0091_
*516 _0092_
*517 _0093_
*518 _0094_
*519 _0095_
*520 _0096_
*521 _0097_
*522 _0098_
*523 _0099_
*524 _0100_
*525 _0101_
*526 _0102_
*527 _0103_
*528 _0104_
*529 _0105_
*530 _0106_
*531 _0107_
*532 _0108_
*533 _0109_
*534 _0110_
*535 _0111_
*536 _0112_
*537 _0113_
*538 _0114_
*539 _0115_
*540 _0116_
*541 _0117_
*542 _0118_
*543 _0119_
*544 _0120_
*545 _0121_
*546 _0122_
*547 _0123_
*548 _0124_
*549 _0125_
*550 _0126_
*551 _0127_
*552 _0128_
*553 _0129_
*554 _0130_
*555 _0131_
*556 _0132_
*557 _0133_
*558 _0134_
*559 _0135_
*560 _0136_
*561 _0137_
*562 _0138_
*563 _0139_
*564 _0140_
*565 _0141_
*566 _0142_
*567 _0143_
*568 _0144_
*569 _0145_
*570 _0146_
*571 _0147_
*572 _0148_
*573 _0149_
*574 _0150_
*575 _0151_
*576 _0152_
*577 _0153_
*578 _0154_
*579 _0155_
*580 _0156_
*581 _0157_
*582 _0158_
*583 _0159_
*584 _0160_
*585 _0161_
*586 _0162_
*587 _0163_
*588 _0164_
*589 _0165_
*590 _0166_
*591 _0167_
*592 _0168_
*593 _0169_
*594 _0170_
*595 _0171_
*596 _0172_
*597 _0173_
*598 _0174_
*599 _0175_
*600 _0176_
*601 _0177_
*602 _0178_
*603 _0179_
*604 _0180_
*605 _0181_
*606 _0182_
*607 _0183_
*608 _0184_
*609 _0185_
*610 _0186_
*611 _0187_
*612 _0188_
*613 _0189_
*614 _0190_
*615 _0191_
*616 _0192_
*617 _0193_
*618 _0194_
*619 _0195_
*620 _0196_
*621 _0197_
*622 _0198_
*623 _0199_
*624 _0200_
*625 _0201_
*626 _0202_
*627 _0203_
*628 _0204_
*629 _0205_
*630 _0206_
*631 _0207_
*632 _0208_
*633 _0209_
*634 _0210_
*635 _0211_
*636 _0212_
*637 _0213_
*638 _0214_
*639 _0215_
*640 _0216_
*641 _0217_
*642 _0218_
*643 _0219_
*644 _0220_
*645 _0221_
*646 _0222_
*647 _0223_
*648 _0224_
*649 _0225_
*650 _0226_
*651 _0227_
*652 _0228_
*653 _0229_
*654 _0230_
*655 _0231_
*656 _0232_
*657 _0233_
*658 _0234_
*659 _0235_
*660 _0236_
*661 _0237_
*662 _0238_
*663 _0239_
*664 _0240_
*665 _0241_
*666 _0242_
*667 _0243_
*668 _0244_
*669 _0245_
*670 _0246_
*671 _0247_
*672 _0248_
*673 _0249_
*674 _0250_
*675 _0251_
*676 _0252_
*677 _0253_
*678 _0254_
*679 _0255_
*680 _0256_
*681 _0257_
*682 _0258_
*683 _0259_
*684 _0260_
*685 _0261_
*686 _0262_
*687 _0263_
*688 _0264_
*689 _0265_
*690 _0266_
*691 _0267_
*692 _0268_
*693 _0269_
*694 _0270_
*695 _0271_
*696 _0272_
*697 _0273_
*698 _0274_
*699 _0275_
*700 _0276_
*701 _0277_
*702 _0278_
*703 _0279_
*704 _0280_
*705 _0281_
*706 _0282_
*707 _0283_
*708 _0284_
*709 _0285_
*710 _0286_
*711 _0287_
*712 _0288_
*713 _0289_
*714 _0290_
*715 _0291_
*716 _0292_
*717 _0293_
*718 _0294_
*719 _0295_
*720 _0296_
*721 _0297_
*722 _0298_
*723 _0299_
*724 _0300_
*725 _0301_
*726 _0302_
*727 _0303_
*728 _0304_
*729 _0305_
*730 _0306_
*731 _0307_
*732 _0308_
*733 _0309_
*734 _0310_
*735 _0311_
*736 _0312_
*737 _0313_
*738 _0314_
*739 _0315_
*740 _0316_
*741 _0317_
*742 _0318_
*743 _0319_
*744 _0320_
*745 _0321_
*746 _0322_
*747 _0323_
*748 _0324_
*749 _0325_
*750 _0326_
*751 _0327_
*752 _0328_
*753 _0329_
*754 _0330_
*755 _0331_
*756 _0332_
*757 _0333_
*758 _0334_
*759 _0335_
*760 _0336_
*761 _0337_
*762 _0338_
*763 _0339_
*764 _0340_
*765 _0341_
*766 _0342_
*767 _0343_
*768 _0344_
*769 _0345_
*770 _0346_
*771 _0347_
*772 _0348_
*773 _0349_
*774 _0350_
*775 _0351_
*776 _0352_
*777 _0353_
*778 _0354_
*779 _0355_
*780 _0356_
*781 _0357_
*782 _0358_
*783 _0359_
*784 _0360_
*785 _0361_
*786 _0362_
*787 _0363_
*788 _0364_
*789 _0365_
*790 _0366_
*791 _0367_
*792 _0368_
*793 _0369_
*794 _0370_
*795 _0371_
*796 _0372_
*797 _0373_
*798 _0374_
*799 _0375_
*800 _0376_
*801 _0377_
*802 _0378_
*803 _0379_
*804 _0380_
*805 _0381_
*806 _0382_
*807 _0383_
*808 _0384_
*809 _0385_
*810 _0386_
*811 _0387_
*812 _0388_
*813 _0389_
*814 _0390_
*815 _0391_
*816 _0392_
*817 _0393_
*818 _0394_
*819 _0395_
*820 _0396_
*821 _0397_
*822 _0398_
*823 _0399_
*824 _0400_
*825 _0401_
*826 _0402_
*827 _0403_
*828 _0404_
*829 _0405_
*830 _0406_
*831 _0407_
*832 _0408_
*833 _0409_
*834 _0410_
*835 _0411_
*836 _0412_
*837 _0413_
*838 _0414_
*839 _0415_
*840 _0416_
*841 _0417_
*842 _0418_
*843 _0419_
*844 _0420_
*845 _0421_
*846 _0422_
*847 _0423_
*848 _0424_
*849 _0425_
*850 _0426_
*851 _0427_
*852 _0428_
*853 _0429_
*854 _0430_
*855 _0431_
*856 _0432_
*857 _0433_
*858 _0434_
*859 _0435_
*860 _0436_
*861 _0437_
*862 _0438_
*863 _0439_
*864 _0440_
*865 _0441_
*866 _0442_
*867 _0443_
*868 _0444_
*869 _0445_
*870 _0446_
*871 _0447_
*872 _0448_
*873 _0449_
*874 _0450_
*875 _0451_
*876 _0452_
*877 _0453_
*878 _0454_
*879 _0455_
*880 _0456_
*881 _0457_
*882 _0458_
*883 _0459_
*884 _0460_
*885 _0461_
*886 _0462_
*887 _0463_
*888 _0464_
*889 _0465_
*890 _0466_
*891 _0467_
*892 _0468_
*893 _0469_
*894 _0470_
*895 _0471_
*896 _0472_
*897 _0473_
*898 _0474_
*899 _0475_
*900 _0476_
*901 _0477_
*902 _0478_
*903 _0479_
*904 _0480_
*905 _0481_
*906 _0482_
*907 _0483_
*908 _0484_
*909 _0485_
*910 _0486_
*911 _0487_
*912 _0488_
*913 _0489_
*914 _0490_
*915 _0491_
*916 _0492_
*917 _0493_
*918 _0494_
*919 _0495_
*920 _0496_
*921 _0497_
*922 _0498_
*923 _0499_
*924 _0500_
*925 _0501_
*926 _0502_
*927 _0503_
*928 _0504_
*929 _0505_
*930 _0506_
*931 _0507_
*932 _0508_
*933 _0509_
*934 _0510_
*935 _0511_
*936 _0512_
*937 _0513_
*938 _0514_
*939 _0515_
*940 _0516_
*941 _0517_
*942 _0518_
*943 _0519_
*944 _0520_
*945 _0521_
*946 _0522_
*947 _0523_
*948 _0524_
*949 _0525_
*950 _0526_
*951 _0527_
*952 _0528_
*953 _0529_
*954 _0530_
*955 _0531_
*956 _0532_
*957 _0533_
*958 _0534_
*959 _0535_
*960 _0536_
*961 _0537_
*962 _0538_
*963 _0539_
*964 _0540_
*965 _0541_
*966 _0542_
*967 _0543_
*968 _0544_
*969 _0545_
*970 _0546_
*971 _0547_
*972 _0548_
*973 _0549_
*974 _0550_
*975 _0551_
*976 _0552_
*977 _0553_
*978 _0554_
*979 _0555_
*980 _0556_
*981 _0557_
*982 _0558_
*983 _0559_
*984 _0560_
*985 _0561_
*986 _0562_
*987 _0563_
*988 _0564_
*989 _0565_
*990 _0566_
*991 _0567_
*992 _0568_
*993 _0569_
*994 _0570_
*995 _0571_
*996 _0572_
*997 _0573_
*998 clknet_0_net235
*999 clknet_0_wb_clk_i
*1000 clknet_1_0__leaf_net235
*1001 clknet_1_1__leaf_net235
*1002 clknet_3_0__leaf_wb_clk_i
*1003 clknet_3_1__leaf_wb_clk_i
*1004 clknet_3_2__leaf_wb_clk_i
*1005 clknet_3_3__leaf_wb_clk_i
*1006 clknet_3_4__leaf_wb_clk_i
*1007 clknet_3_5__leaf_wb_clk_i
*1008 clknet_3_6__leaf_wb_clk_i
*1009 clknet_3_7__leaf_wb_clk_i
*1010 design_addr\[0\]
*1011 design_addr\[1\]
*1012 design_addr\[2\]
*1013 design_addr\[3\]
*1014 net1
*1015 net10
*1016 net100
*1017 net101
*1018 net102
*1019 net103
*1020 net104
*1021 net105
*1022 net106
*1023 net107
*1024 net108
*1025 net109
*1026 net11
*1027 net110
*1028 net111
*1029 net112
*1030 net113
*1031 net114
*1032 net115
*1033 net116
*1034 net117
*1035 net118
*1036 net119
*1037 net12
*1038 net120
*1039 net121
*1040 net122
*1041 net123
*1042 net124
*1043 net125
*1044 net126
*1045 net127
*1046 net128
*1047 net129
*1048 net13
*1049 net130
*1050 net131
*1051 net132
*1052 net133
*1053 net134
*1054 net135
*1055 net136
*1056 net137
*1057 net138
*1058 net139
*1059 net14
*1060 net140
*1061 net141
*1062 net142
*1063 net143
*1064 net144
*1065 net145
*1066 net146
*1067 net147
*1068 net148
*1069 net149
*1070 net15
*1071 net150
*1072 net151
*1073 net152
*1074 net153
*1075 net154
*1076 net155
*1077 net156
*1078 net157
*1079 net158
*1080 net159
*1081 net16
*1082 net160
*1083 net161
*1084 net162
*1085 net163
*1086 net164
*1087 net165
*1088 net166
*1089 net167
*1090 net168
*1091 net169
*1092 net17
*1093 net170
*1094 net171
*1095 net172
*1096 net173
*1097 net174
*1098 net175
*1099 net176
*1100 net177
*1101 net178
*1102 net179
*1103 net18
*1104 net180
*1105 net181
*1106 net182
*1107 net183
*1108 net184
*1109 net185
*1110 net186
*1111 net187
*1112 net188
*1113 net189
*1114 net19
*1115 net190
*1116 net191
*1117 net192
*1118 net193
*1119 net194
*1120 net195
*1121 net196
*1122 net197
*1123 net198
*1124 net199
*1125 net2
*1126 net20
*1127 net200
*1128 net201
*1129 net202
*1130 net203
*1131 net204
*1132 net205
*1133 net206
*1134 net207
*1135 net208
*1136 net209
*1137 net21
*1138 net210
*1139 net211
*1140 net212
*1141 net213
*1142 net214
*1143 net215
*1144 net216
*1145 net217
*1146 net218
*1147 net219
*1148 net22
*1149 net220
*1150 net221
*1151 net222
*1152 net223
*1153 net224
*1154 net225
*1155 net226
*1156 net227
*1157 net228
*1158 net229
*1159 net23
*1160 net230
*1161 net231
*1162 net232
*1163 net233
*1164 net234
*1165 net235
*1166 net236
*1167 net237
*1168 net238
*1169 net239
*1170 net24
*1171 net240
*1172 net241
*1173 net242
*1174 net243
*1175 net244
*1176 net245
*1177 net246
*1178 net247
*1179 net248
*1180 net249
*1181 net25
*1182 net250
*1183 net251
*1184 net252
*1185 net253
*1186 net254
*1187 net255
*1188 net256
*1189 net257
*1190 net258
*1191 net259
*1192 net26
*1193 net260
*1194 net261
*1195 net262
*1196 net263
*1197 net264
*1198 net265
*1199 net266
*1200 net267
*1201 net268
*1202 net269
*1203 net27
*1204 net270
*1205 net271
*1206 net272
*1207 net273
*1208 net274
*1209 net275
*1210 net276
*1211 net277
*1212 net278
*1213 net279
*1214 net28
*1215 net280
*1216 net281
*1217 net282
*1218 net283
*1219 net284
*1220 net285
*1221 net286
*1222 net287
*1223 net288
*1224 net289
*1225 net29
*1226 net290
*1227 net291
*1228 net292
*1229 net293
*1230 net294
*1231 net295
*1232 net296
*1233 net297
*1234 net298
*1235 net299
*1236 net3
*1237 net30
*1238 net300
*1239 net301
*1240 net302
*1241 net303
*1242 net304
*1243 net305
*1244 net306
*1245 net307
*1246 net308
*1247 net309
*1248 net31
*1249 net310
*1250 net311
*1251 net312
*1252 net313
*1253 net314
*1254 net315
*1255 net316
*1256 net317
*1257 net318
*1258 net319
*1259 net32
*1260 net320
*1261 net321
*1262 net322
*1263 net323
*1264 net324
*1265 net325
*1266 net326
*1267 net327
*1268 net328
*1269 net329
*1270 net33
*1271 net330
*1272 net331
*1273 net332
*1274 net333
*1275 net334
*1276 net335
*1277 net336
*1278 net337
*1279 net338
*1280 net339
*1281 net34
*1282 net340
*1283 net341
*1284 net342
*1285 net343
*1286 net344
*1287 net345
*1288 net346
*1289 net347
*1290 net348
*1291 net349
*1292 net35
*1293 net350
*1294 net351
*1295 net352
*1296 net353
*1297 net354
*1298 net355
*1299 net356
*1300 net36
*1301 net37
*1302 net38
*1303 net384
*1304 net385
*1305 net386
*1306 net387
*1307 net388
*1308 net389
*1309 net39
*1310 net390
*1311 net391
*1312 net392
*1313 net393
*1314 net394
*1315 net395
*1316 net396
*1317 net397
*1318 net398
*1319 net399
*1320 net4
*1321 net40
*1322 net400
*1323 net401
*1324 net402
*1325 net403
*1326 net404
*1327 net405
*1328 net406
*1329 net407
*1330 net408
*1331 net409
*1332 net41
*1333 net410
*1334 net411
*1335 net412
*1336 net413
*1337 net414
*1338 net415
*1339 net416
*1340 net417
*1341 net418
*1342 net419
*1343 net42
*1344 net420
*1345 net421
*1346 net422
*1347 net423
*1348 net424
*1349 net425
*1350 net426
*1351 net427
*1352 net428
*1353 net429
*1354 net43
*1355 net430
*1356 net431
*1357 net432
*1358 net433
*1359 net434
*1360 net435
*1361 net436
*1362 net437
*1363 net438
*1364 net44
*1365 net45
*1366 net46
*1367 net47
*1368 net48
*1369 net49
*1370 net5
*1371 net50
*1372 net51
*1373 net52
*1374 net53
*1375 net54
*1376 net55
*1377 net56
*1378 net57
*1379 net58
*1380 net59
*1381 net6
*1382 net60
*1383 net61
*1384 net62
*1385 net63
*1386 net64
*1387 net65
*1388 net66
*1389 net67
*1390 net68
*1391 net69
*1392 net7
*1393 net70
*1394 net71
*1395 net72
*1396 net73
*1397 net74
*1398 net75
*1399 net76
*1400 net77
*1401 net78
*1402 net79
*1403 net8
*1404 net80
*1405 net81
*1406 net82
*1407 net83
*1408 net84
*1409 net85
*1410 net86
*1411 net87
*1412 net88
*1413 net89
*1414 net9
*1415 net90
*1416 net91
*1417 net92
*1418 net93
*1419 net94
*1420 net95
*1421 net96
*1422 net97
*1423 net98
*1424 net99
*1425 wb_clk_override
*1426 wb_counter\[0\]
*1427 wb_counter\[10\]
*1428 wb_counter\[11\]
*1429 wb_counter\[12\]
*1430 wb_counter\[13\]
*1431 wb_counter\[14\]
*1432 wb_counter\[15\]
*1433 wb_counter\[16\]
*1434 wb_counter\[17\]
*1435 wb_counter\[18\]
*1436 wb_counter\[19\]
*1437 wb_counter\[1\]
*1438 wb_counter\[20\]
*1439 wb_counter\[21\]
*1440 wb_counter\[22\]
*1441 wb_counter\[23\]
*1442 wb_counter\[2\]
*1443 wb_counter\[3\]
*1444 wb_counter\[4\]
*1445 wb_counter\[5\]
*1446 wb_counter\[6\]
*1447 wb_counter\[7\]
*1448 wb_counter\[8\]
*1449 wb_counter\[9\]
*1450 wb_design_addr_override\[0\]
*1451 wb_design_addr_override\[1\]
*1452 wb_design_addr_override\[2\]
*1453 wb_design_addr_override\[3\]
*1454 wb_feedback_delay
*1455 wb_io_override\[0\]
*1456 wb_io_override\[10\]
*1457 wb_io_override\[11\]
*1458 wb_io_override\[12\]
*1459 wb_io_override\[13\]
*1460 wb_io_override\[14\]
*1461 wb_io_override\[15\]
*1462 wb_io_override\[16\]
*1463 wb_io_override\[17\]
*1464 wb_io_override\[18\]
*1465 wb_io_override\[19\]
*1466 wb_io_override\[1\]
*1467 wb_io_override\[20\]
*1468 wb_io_override\[21\]
*1469 wb_io_override\[22\]
*1470 wb_io_override\[23\]
*1471 wb_io_override\[24\]
*1472 wb_io_override\[25\]
*1473 wb_io_override\[26\]
*1474 wb_io_override\[2\]
*1475 wb_io_override\[3\]
*1476 wb_io_override\[4\]
*1477 wb_io_override\[5\]
*1478 wb_io_override\[6\]
*1479 wb_io_override\[7\]
*1480 wb_io_override\[8\]
*1481 wb_io_override\[9\]
*1482 wb_override
*1483 wb_rst_override
*1484 wb_single_step
*1485 ANTENNA__0574__A0
*1486 ANTENNA__0580__A
*1487 ANTENNA__0581__A
*1488 ANTENNA__0582__A
*1489 ANTENNA__0582__B_N
*1490 ANTENNA__0587__A
*1491 ANTENNA__0587__B_N
*1492 ANTENNA__0593__A
*1493 ANTENNA__0593__B_N
*1494 ANTENNA__0596__C
*1495 ANTENNA__0600__A
*1496 ANTENNA__0600__B_N
*1497 ANTENNA__0604__A
*1498 ANTENNA__0604__B_N
*1499 ANTENNA__0608__A
*1500 ANTENNA__0609__A
*1501 ANTENNA__0610__A
*1502 ANTENNA__0610__B_N
*1503 ANTENNA__0613__B
*1504 ANTENNA__0615__B
*1505 ANTENNA__0618__A
*1506 ANTENNA__0622__A2
*1507 ANTENNA__0622__B1
*1508 ANTENNA__0623__A1
*1509 ANTENNA__0623__A2
*1510 ANTENNA__0623__B1
*1511 ANTENNA__0625__A1
*1512 ANTENNA__0625__B1
*1513 ANTENNA__0628__A1
*1514 ANTENNA__0628__B1
*1515 ANTENNA__0629__A
*1516 ANTENNA__0630__A
*1517 ANTENNA__0630__B
*1518 ANTENNA__0634__A
*1519 ANTENNA__0634__B
*1520 ANTENNA__0636__A1
*1521 ANTENNA__0636__A2
*1522 ANTENNA__0636__B1
*1523 ANTENNA__0639__A
*1524 ANTENNA__0640__A
*1525 ANTENNA__0641__A
*1526 ANTENNA__0642__A
*1527 ANTENNA__0642__B
*1528 ANTENNA__0644__A
*1529 ANTENNA__0644__B
*1530 ANTENNA__0646__A
*1531 ANTENNA__0646__B
*1532 ANTENNA__0648__A
*1533 ANTENNA__0648__B
*1534 ANTENNA__0651__A
*1535 ANTENNA__0651__B
*1536 ANTENNA__0653__A
*1537 ANTENNA__0655__A1
*1538 ANTENNA__0655__A2
*1539 ANTENNA__0655__B1
*1540 ANTENNA__0655__B2
*1541 ANTENNA__0656__A
*1542 ANTENNA__0657__A1
*1543 ANTENNA__0657__A2
*1544 ANTENNA__0657__B2
*1545 ANTENNA__0658__A1
*1546 ANTENNA__0658__A2
*1547 ANTENNA__0658__B1
*1548 ANTENNA__0658__B2
*1549 ANTENNA__0661__A1
*1550 ANTENNA__0661__A2
*1551 ANTENNA__0661__B1
*1552 ANTENNA__0661__B2
*1553 ANTENNA__0662__A
*1554 ANTENNA__0663__A1
*1555 ANTENNA__0663__A2
*1556 ANTENNA__0663__B1
*1557 ANTENNA__0663__B2
*1558 ANTENNA__0664__A1
*1559 ANTENNA__0664__A2
*1560 ANTENNA__0664__B2
*1561 ANTENNA__0665__A1
*1562 ANTENNA__0665__A2
*1563 ANTENNA__0667__A1
*1564 ANTENNA__0668__A1
*1565 ANTENNA__0668__A2
*1566 ANTENNA__0668__B1
*1567 ANTENNA__0668__B2
*1568 ANTENNA__0669__A2
*1569 ANTENNA__0669__B1
*1570 ANTENNA__0669__B2
*1571 ANTENNA__0670__A1
*1572 ANTENNA__0670__A2
*1573 ANTENNA__0670__B1
*1574 ANTENNA__0670__B2
*1575 ANTENNA__0671__A1
*1576 ANTENNA__0672__A1
*1577 ANTENNA__0672__A2
*1578 ANTENNA__0672__B1
*1579 ANTENNA__0672__B2
*1580 ANTENNA__0673__A1
*1581 ANTENNA__0673__A2
*1582 ANTENNA__0673__B1
*1583 ANTENNA__0673__B2
*1584 ANTENNA__0674__A1
*1585 ANTENNA__0674__A2
*1586 ANTENNA__0674__B1
*1587 ANTENNA__0674__B2
*1588 ANTENNA__0675__A1
*1589 ANTENNA__0676__A1
*1590 ANTENNA__0676__A2
*1591 ANTENNA__0676__B2
*1592 ANTENNA__0677__A1
*1593 ANTENNA__0677__A2
*1594 ANTENNA__0677__B1
*1595 ANTENNA__0677__B2
*1596 ANTENNA__0678__A1
*1597 ANTENNA__0678__A2
*1598 ANTENNA__0678__B1
*1599 ANTENNA__0678__B2
*1600 ANTENNA__0679__A1
*1601 ANTENNA__0679__A2
*1602 ANTENNA__0679__B1
*1603 ANTENNA__0679__B2
*1604 ANTENNA__0682__A1
*1605 ANTENNA__0682__A2
*1606 ANTENNA__0682__B2
*1607 ANTENNA__0683__A1
*1608 ANTENNA__0683__A2
*1609 ANTENNA__0683__B1
*1610 ANTENNA__0683__B2
*1611 ANTENNA__0684__A1
*1612 ANTENNA__0684__A2
*1613 ANTENNA__0684__B1
*1614 ANTENNA__0684__B2
*1615 ANTENNA__0685__A1
*1616 ANTENNA__0685__A2
*1617 ANTENNA__0685__B1
*1618 ANTENNA__0685__B2
*1619 ANTENNA__0688__A2
*1620 ANTENNA__0688__B1
*1621 ANTENNA__0689__A1
*1622 ANTENNA__0689__A2
*1623 ANTENNA__0689__B1
*1624 ANTENNA__0689__B2
*1625 ANTENNA__0689__C1
*1626 ANTENNA__0690__A1
*1627 ANTENNA__0690__A2
*1628 ANTENNA__0690__B1
*1629 ANTENNA__0690__B2
*1630 ANTENNA__0691__A1
*1631 ANTENNA__0691__A2
*1632 ANTENNA__0691__B2
*1633 ANTENNA__0692__A1
*1634 ANTENNA__0692__A2
*1635 ANTENNA__0695__A1
*1636 ANTENNA__0695__A2
*1637 ANTENNA__0695__B1
*1638 ANTENNA__0695__B2
*1639 ANTENNA__0696__A1
*1640 ANTENNA__0696__A2
*1641 ANTENNA__0696__B1
*1642 ANTENNA__0696__B2
*1643 ANTENNA__0697__A1
*1644 ANTENNA__0697__B2
*1645 ANTENNA__0698__A1
*1646 ANTENNA__0698__A2
*1647 ANTENNA__0698__B2
*1648 ANTENNA__0699__A1
*1649 ANTENNA__0699__A2
*1650 ANTENNA__0702__A1
*1651 ANTENNA__0702__B1
*1652 ANTENNA__0702__B2
*1653 ANTENNA__0703__A1
*1654 ANTENNA__0703__A2
*1655 ANTENNA__0703__B1
*1656 ANTENNA__0703__B2
*1657 ANTENNA__0704__A1
*1658 ANTENNA__0704__A2
*1659 ANTENNA__0704__B2
*1660 ANTENNA__0705__A2
*1661 ANTENNA__0706__A1
*1662 ANTENNA__0706__A2
*1663 ANTENNA__0706__B1
*1664 ANTENNA__0706__B2
*1665 ANTENNA__0707__A2
*1666 ANTENNA__0707__B1
*1667 ANTENNA__0707__B2
*1668 ANTENNA__0708__A1
*1669 ANTENNA__0708__A2
*1670 ANTENNA__0708__B1
*1671 ANTENNA__0708__B2
*1672 ANTENNA__0709__A1
*1673 ANTENNA__0709__A2
*1674 ANTENNA__0709__B1
*1675 ANTENNA__0709__B2
*1676 ANTENNA__0710__A1
*1677 ANTENNA__0710__B2
*1678 ANTENNA__0713__A1
*1679 ANTENNA__0713__A2
*1680 ANTENNA__0713__B2
*1681 ANTENNA__0714__A
*1682 ANTENNA__0715__A2
*1683 ANTENNA__0715__B1
*1684 ANTENNA__0715__B2
*1685 ANTENNA__0716__A1
*1686 ANTENNA__0716__B2
*1687 ANTENNA__0717__A1
*1688 ANTENNA__0717__B1
*1689 ANTENNA__0717__B2
*1690 ANTENNA__0720__A1
*1691 ANTENNA__0720__A2
*1692 ANTENNA__0720__B1
*1693 ANTENNA__0720__B2
*1694 ANTENNA__0721__A1
*1695 ANTENNA__0721__A2
*1696 ANTENNA__0721__B1
*1697 ANTENNA__0721__B2
*1698 ANTENNA__0722__A1
*1699 ANTENNA__0722__A2
*1700 ANTENNA__0722__B1
*1701 ANTENNA__0722__B2
*1702 ANTENNA__0723__A2
*1703 ANTENNA__0723__B1
*1704 ANTENNA__0723__B2
*1705 ANTENNA__0726__A1
*1706 ANTENNA__0726__B1
*1707 ANTENNA__0726__B2
*1708 ANTENNA__0728__A1
*1709 ANTENNA__0728__A2
*1710 ANTENNA__0728__B2
*1711 ANTENNA__0729__A1
*1712 ANTENNA__0729__A2
*1713 ANTENNA__0730__A2
*1714 ANTENNA__0730__B1
*1715 ANTENNA__0730__B2
*1716 ANTENNA__0731__A2
*1717 ANTENNA__0731__B1
*1718 ANTENNA__0731__B2
*1719 ANTENNA__0732__A2
*1720 ANTENNA__0732__B2
*1721 ANTENNA__0733__A1
*1722 ANTENNA__0733__A2
*1723 ANTENNA__0733__B1
*1724 ANTENNA__0733__B2
*1725 ANTENNA__0736__A2
*1726 ANTENNA__0736__B1
*1727 ANTENNA__0736__B2
*1728 ANTENNA__0737__A1
*1729 ANTENNA__0737__B1
*1730 ANTENNA__0737__B2
*1731 ANTENNA__0738__A1
*1732 ANTENNA__0738__A2
*1733 ANTENNA__0739__A2
*1734 ANTENNA__0739__B2
*1735 ANTENNA__0740__A1
*1736 ANTENNA__0740__A2
*1737 ANTENNA__0740__B1
*1738 ANTENNA__0740__B2
*1739 ANTENNA__0741__A1
*1740 ANTENNA__0741__A2
*1741 ANTENNA__0742__A2
*1742 ANTENNA__0742__B1
*1743 ANTENNA__0742__B2
*1744 ANTENNA__0743__A1
*1745 ANTENNA__0743__B1
*1746 ANTENNA__0743__B2
*1747 ANTENNA__0746__A2
*1748 ANTENNA__0746__B1
*1749 ANTENNA__0747__A2
*1750 ANTENNA__0747__B1
*1751 ANTENNA__0747__B2
*1752 ANTENNA__0747__C1
*1753 ANTENNA__0750__A1
*1754 ANTENNA__0750__A2
*1755 ANTENNA__0750__B1
*1756 ANTENNA__0750__B2
*1757 ANTENNA__0751__A2
*1758 ANTENNA__0751__B2
*1759 ANTENNA__0754__A2
*1760 ANTENNA__0754__B1
*1761 ANTENNA__0755__A2
*1762 ANTENNA__0755__B1
*1763 ANTENNA__0755__B2
*1764 ANTENNA__0755__C1
*1765 ANTENNA__0758__A2
*1766 ANTENNA__0758__B1
*1767 ANTENNA__0758__B2
*1768 ANTENNA__0759__A1
*1769 ANTENNA__0759__A2
*1770 ANTENNA__0759__B2
*1771 ANTENNA__0762__A2
*1772 ANTENNA__0762__B1
*1773 ANTENNA__0763__A2
*1774 ANTENNA__0763__B1
*1775 ANTENNA__0763__B2
*1776 ANTENNA__0763__C1
*1777 ANTENNA__0766__A1
*1778 ANTENNA__0766__A2
*1779 ANTENNA__0766__B1
*1780 ANTENNA__0766__B2
*1781 ANTENNA__0767__A2
*1782 ANTENNA__0767__B1
*1783 ANTENNA__0767__B2
*1784 ANTENNA__0770__A2
*1785 ANTENNA__0770__B1
*1786 ANTENNA__0771__A2
*1787 ANTENNA__0771__B1
*1788 ANTENNA__0771__B2
*1789 ANTENNA__0771__C1
*1790 ANTENNA__0774__A2
*1791 ANTENNA__0774__B1
*1792 ANTENNA__0774__B2
*1793 ANTENNA__0775__A1
*1794 ANTENNA__0775__A2
*1795 ANTENNA__0775__B2
*1796 ANTENNA__0778__A1
*1797 ANTENNA__0778__B1
*1798 ANTENNA__0778__B2
*1799 ANTENNA__0779__A1
*1800 ANTENNA__0779__A2
*1801 ANTENNA__0779__B1
*1802 ANTENNA__0779__B2
*1803 ANTENNA__0782__A1
*1804 ANTENNA__0782__B1
*1805 ANTENNA__0782__B2
*1806 ANTENNA__0783__A1
*1807 ANTENNA__0783__A2
*1808 ANTENNA__0783__B1
*1809 ANTENNA__0783__B2
*1810 ANTENNA__0788__A0
*1811 ANTENNA__0788__S
*1812 ANTENNA__0790__A
*1813 ANTENNA__0793__A3
*1814 ANTENNA__0794__A
*1815 ANTENNA__0796__A2
*1816 ANTENNA__0796__A3
*1817 ANTENNA__0798__A3
*1818 ANTENNA__0800__A3
*1819 ANTENNA__0802__A3
*1820 ANTENNA__0804__A3
*1821 ANTENNA__0806__A3
*1822 ANTENNA__0808__A3
*1823 ANTENNA__0810__A3
*1824 ANTENNA__0812__A3
*1825 ANTENNA__0815__A3
*1826 ANTENNA__0818__A3
*1827 ANTENNA__0820__A3
*1828 ANTENNA__0822__A3
*1829 ANTENNA__0824__A3
*1830 ANTENNA__0826__A3
*1831 ANTENNA__0828__A3
*1832 ANTENNA__0830__A3
*1833 ANTENNA__0832__A3