*SPEF "ieee 1481-1999"
*DESIGN "multiplexer"
*DATE "11:11:11 Fri 11 11, 1111"
*VENDOR "OpenRCX"
*PROGRAM "Parallel Extraction"
*VERSION "1.0"
*DESIGN_FLOW "NAME_SCOPE LOCAL" "PIN_CAP NONE"
*DIVIDER /
*DELIMITER :
*BUS_DELIMITER []
*T_UNIT 1 NS
*C_UNIT 1 PF
*R_UNIT 1 OHM
*L_UNIT 1 HENRY

*NAME_MAP
*1 design_clk_o
*2 dsi_all[0]
*3 dsi_all[10]
*4 dsi_all[11]
*5 dsi_all[12]
*6 dsi_all[13]
*7 dsi_all[14]
*8 dsi_all[15]
*9 dsi_all[16]
*10 dsi_all[17]
*11 dsi_all[18]
*12 dsi_all[19]
*13 dsi_all[1]
*14 dsi_all[20]
*15 dsi_all[21]
*16 dsi_all[22]
*17 dsi_all[23]
*18 dsi_all[24]
*19 dsi_all[25]
*20 dsi_all[26]
*21 dsi_all[27]
*22 dsi_all[2]
*23 dsi_all[3]
*24 dsi_all[4]
*25 dsi_all[5]
*26 dsi_all[6]
*27 dsi_all[7]
*28 dsi_all[8]
*29 dsi_all[9]
*30 dso_6502[0]
*31 dso_6502[10]
*32 dso_6502[11]
*33 dso_6502[12]
*34 dso_6502[13]
*35 dso_6502[14]
*36 dso_6502[15]
*37 dso_6502[16]
*38 dso_6502[17]
*39 dso_6502[18]
*40 dso_6502[19]
*41 dso_6502[1]
*42 dso_6502[20]
*43 dso_6502[21]
*44 dso_6502[22]
*45 dso_6502[23]
*46 dso_6502[24]
*47 dso_6502[25]
*48 dso_6502[26]
*49 dso_6502[2]
*50 dso_6502[3]
*51 dso_6502[4]
*52 dso_6502[5]
*53 dso_6502[6]
*54 dso_6502[7]
*55 dso_6502[8]
*56 dso_6502[9]
*57 dso_LCD[0]
*58 dso_LCD[1]
*59 dso_LCD[2]
*60 dso_LCD[3]
*61 dso_LCD[4]
*62 dso_LCD[5]
*63 dso_LCD[6]
*64 dso_LCD[7]
*65 dso_as1802[0]
*66 dso_as1802[10]
*67 dso_as1802[11]
*68 dso_as1802[12]
*69 dso_as1802[13]
*70 dso_as1802[14]
*71 dso_as1802[15]
*72 dso_as1802[16]
*73 dso_as1802[17]
*74 dso_as1802[18]
*75 dso_as1802[19]
*76 dso_as1802[1]
*77 dso_as1802[20]
*78 dso_as1802[21]
*79 dso_as1802[22]
*80 dso_as1802[23]
*81 dso_as1802[24]
*82 dso_as1802[25]
*83 dso_as1802[26]
*84 dso_as1802[2]
*85 dso_as1802[3]
*86 dso_as1802[4]
*87 dso_as1802[5]
*88 dso_as1802[6]
*89 dso_as1802[7]
*90 dso_as1802[8]
*91 dso_as1802[9]
*92 dso_as2650[0]
*93 dso_as2650[10]
*94 dso_as2650[11]
*95 dso_as2650[12]
*96 dso_as2650[13]
*97 dso_as2650[14]
*98 dso_as2650[15]
*99 dso_as2650[16]
*100 dso_as2650[17]
*101 dso_as2650[18]
*102 dso_as2650[19]
*103 dso_as2650[1]
*104 dso_as2650[20]
*105 dso_as2650[21]
*106 dso_as2650[22]
*107 dso_as2650[23]
*108 dso_as2650[24]
*109 dso_as2650[25]
*110 dso_as2650[26]
*111 dso_as2650[2]
*112 dso_as2650[3]
*113 dso_as2650[4]
*114 dso_as2650[5]
*115 dso_as2650[6]
*116 dso_as2650[7]
*117 dso_as2650[8]
*118 dso_as2650[9]
*119 dso_as512512512[0]
*120 dso_as512512512[10]
*121 dso_as512512512[11]
*122 dso_as512512512[12]
*123 dso_as512512512[13]
*124 dso_as512512512[14]
*125 dso_as512512512[15]
*126 dso_as512512512[16]
*127 dso_as512512512[17]
*128 dso_as512512512[18]
*129 dso_as512512512[19]
*130 dso_as512512512[1]
*131 dso_as512512512[20]
*132 dso_as512512512[21]
*133 dso_as512512512[22]
*134 dso_as512512512[23]
*135 dso_as512512512[24]
*136 dso_as512512512[25]
*137 dso_as512512512[26]
*138 dso_as512512512[27]
*139 dso_as512512512[2]
*140 dso_as512512512[3]
*141 dso_as512512512[4]
*142 dso_as512512512[5]
*143 dso_as512512512[6]
*144 dso_as512512512[7]
*145 dso_as512512512[8]
*146 dso_as512512512[9]
*147 dso_as5401[0]
*148 dso_as5401[10]
*149 dso_as5401[11]
*150 dso_as5401[12]
*151 dso_as5401[13]
*152 dso_as5401[14]
*153 dso_as5401[15]
*154 dso_as5401[16]
*155 dso_as5401[17]
*156 dso_as5401[18]
*157 dso_as5401[19]
*158 dso_as5401[1]
*159 dso_as5401[20]
*160 dso_as5401[21]
*161 dso_as5401[22]
*162 dso_as5401[23]
*163 dso_as5401[24]
*164 dso_as5401[25]
*165 dso_as5401[26]
*166 dso_as5401[2]
*167 dso_as5401[3]
*168 dso_as5401[4]
*169 dso_as5401[5]
*170 dso_as5401[6]
*171 dso_as5401[7]
*172 dso_as5401[8]
*173 dso_as5401[9]
*174 dso_counter[0]
*175 dso_counter[10]
*176 dso_counter[11]
*177 dso_counter[1]
*178 dso_counter[2]
*179 dso_counter[3]
*180 dso_counter[4]
*181 dso_counter[5]
*182 dso_counter[6]
*183 dso_counter[7]
*184 dso_counter[8]
*185 dso_counter[9]
*186 dso_diceroll[0]
*187 dso_diceroll[1]
*188 dso_diceroll[2]
*189 dso_diceroll[3]
*190 dso_diceroll[4]
*191 dso_diceroll[5]
*192 dso_diceroll[6]
*193 dso_diceroll[7]
*194 dso_mc14500[0]
*195 dso_mc14500[1]
*196 dso_mc14500[2]
*197 dso_mc14500[3]
*198 dso_mc14500[4]
*199 dso_mc14500[5]
*200 dso_mc14500[6]
*201 dso_mc14500[7]
*202 dso_mc14500[8]
*203 dso_multiplier[0]
*204 dso_multiplier[1]
*205 dso_multiplier[2]
*206 dso_multiplier[3]
*207 dso_multiplier[4]
*208 dso_multiplier[5]
*209 dso_multiplier[6]
*210 dso_multiplier[7]
*211 dso_posit[0]
*212 dso_posit[1]
*213 dso_posit[2]
*214 dso_posit[3]
*215 dso_tbb1143[0]
*216 dso_tbb1143[1]
*217 dso_tbb1143[2]
*218 dso_tbb1143[3]
*219 dso_tbb1143[4]
*220 dso_tbb1143[5]
*221 dso_tbb1143[6]
*222 dso_tbb1143[7]
*223 dso_tune
*224 dso_vgatest[0]
*225 dso_vgatest[1]
*226 dso_vgatest[2]
*227 dso_vgatest[3]
*228 dso_vgatest[4]
*229 dso_vgatest[5]
*230 dso_vgatest[6]
*231 dso_vgatest[7]
*232 dso_vgatest[8]
*233 dso_vgatest[9]
*234 io_in[0]
*235 io_in[10]
*236 io_in[11]
*237 io_in[12]
*238 io_in[13]
*239 io_in[14]
*240 io_in[15]
*241 io_in[16]
*242 io_in[17]
*243 io_in[18]
*244 io_in[19]
*245 io_in[1]
*246 io_in[20]
*247 io_in[21]
*248 io_in[22]
*249 io_in[23]
*250 io_in[24]
*251 io_in[25]
*252 io_in[26]
*253 io_in[27]
*254 io_in[28]
*255 io_in[29]
*256 io_in[2]
*257 io_in[30]
*258 io_in[31]
*259 io_in[32]
*260 io_in[33]
*261 io_in[34]
*262 io_in[35]
*263 io_in[36]
*264 io_in[37]
*265 io_in[3]
*266 io_in[4]
*267 io_in[5]
*268 io_in[6]
*269 io_in[7]
*270 io_in[8]
*271 io_in[9]
*272 io_oeb[0]
*273 net510
*274 io_oeb[11]
*275 io_oeb[12]
*276 io_oeb[13]
*277 io_oeb[14]
*278 io_oeb[15]
*279 io_oeb[16]
*280 io_oeb[17]
*281 io_oeb[18]
*282 io_oeb[19]
*283 net491
*284 io_oeb[20]
*285 io_oeb[21]
*286 io_oeb[22]
*287 io_oeb[23]
*288 io_oeb[24]
*289 io_oeb[25]
*290 io_oeb[26]
*291 io_oeb[27]
*292 io_oeb[28]
*293 io_oeb[29]
*294 net492
*295 io_oeb[30]
*296 io_oeb[31]
*297 io_oeb[32]
*298 io_oeb[33]
*299 io_oeb[34]
*300 io_oeb[35]
*301 io_oeb[36]
*302 io_oeb[37]
*303 net493
*304 net494
*305 net505
*306 net506
*307 net507
*308 net508
*309 net509
*310 io_out[0]
*311 net500
*312 io_out[11]
*313 io_out[12]
*314 io_out[13]
*315 io_out[14]
*316 io_out[15]
*317 io_out[16]
*318 io_out[17]
*319 io_out[18]
*320 io_out[19]
*321 io_out[1]
*322 io_out[20]
*323 io_out[21]
*324 io_out[22]
*325 io_out[23]
*326 io_out[24]
*327 io_out[25]
*328 io_out[26]
*329 io_out[27]
*330 io_out[28]
*331 io_out[29]
*332 io_out[2]
*333 io_out[30]
*334 io_out[31]
*335 io_out[32]
*336 io_out[33]
*337 io_out[34]
*338 io_out[35]
*339 io_out[36]
*340 io_out[37]
*341 io_out[3]
*342 io_out[4]
*343 net495
*344 net496
*345 net497
*346 net498
*347 net499
*348 oeb_6502
*349 oeb_as1802
*350 oeb_as2650
*351 oeb_as512512512
*352 oeb_as5401
*353 oeb_mc14500
*354 rst_6502
*355 rst_LCD
*356 rst_as1802
*357 rst_as2650
*358 rst_as512512512
*359 rst_as5401
*360 rst_counter
*361 rst_diceroll
*362 rst_mc14500
*363 rst_posit
*364 rst_tbb1143
*365 rst_tune
*366 rst_vgatest
*369 wb_clk_i
*370 wb_rst_i
*371 wbs_ack_o
*372 wbs_adr_i[0]
*373 wbs_adr_i[10]
*374 wbs_adr_i[11]
*375 wbs_adr_i[12]
*376 wbs_adr_i[13]
*377 wbs_adr_i[14]
*378 wbs_adr_i[15]
*379 wbs_adr_i[16]
*380 wbs_adr_i[17]
*381 wbs_adr_i[18]
*382 wbs_adr_i[19]
*383 wbs_adr_i[1]
*384 wbs_adr_i[20]
*385 wbs_adr_i[21]
*386 wbs_adr_i[22]
*387 wbs_adr_i[23]
*388 wbs_adr_i[24]
*389 wbs_adr_i[25]
*390 wbs_adr_i[26]
*391 wbs_adr_i[27]
*392 wbs_adr_i[28]
*393 wbs_adr_i[29]
*394 wbs_adr_i[2]
*395 wbs_adr_i[30]
*396 wbs_adr_i[31]
*397 wbs_adr_i[3]
*398 wbs_adr_i[4]
*399 wbs_adr_i[5]
*400 wbs_adr_i[6]
*401 wbs_adr_i[7]
*402 wbs_adr_i[8]
*403 wbs_adr_i[9]
*404 wbs_cyc_i
*405 wbs_dat_i[0]
*406 wbs_dat_i[10]
*407 wbs_dat_i[11]
*408 wbs_dat_i[12]
*409 wbs_dat_i[13]
*410 wbs_dat_i[14]
*411 wbs_dat_i[15]
*412 wbs_dat_i[16]
*413 wbs_dat_i[17]
*414 wbs_dat_i[18]
*415 wbs_dat_i[19]
*416 wbs_dat_i[1]
*417 wbs_dat_i[20]
*418 wbs_dat_i[21]
*419 wbs_dat_i[22]
*420 wbs_dat_i[23]
*421 wbs_dat_i[24]
*422 wbs_dat_i[25]
*423 wbs_dat_i[26]
*424 wbs_dat_i[27]
*425 wbs_dat_i[28]
*426 wbs_dat_i[29]
*427 wbs_dat_i[2]
*428 wbs_dat_i[30]
*429 wbs_dat_i[31]
*430 wbs_dat_i[3]
*431 wbs_dat_i[4]
*432 wbs_dat_i[5]
*433 wbs_dat_i[6]
*434 wbs_dat_i[7]
*435 wbs_dat_i[8]
*436 wbs_dat_i[9]
*437 wbs_dat_o[0]
*438 wbs_dat_o[10]
*439 wbs_dat_o[11]
*440 wbs_dat_o[12]
*441 wbs_dat_o[13]
*442 wbs_dat_o[14]
*443 wbs_dat_o[15]
*444 wbs_dat_o[16]
*445 wbs_dat_o[17]
*446 wbs_dat_o[18]
*447 wbs_dat_o[19]
*448 wbs_dat_o[1]
*449 wbs_dat_o[20]
*450 wbs_dat_o[21]
*451 wbs_dat_o[22]
*452 wbs_dat_o[23]
*453 wbs_dat_o[24]
*454 wbs_dat_o[25]
*455 wbs_dat_o[26]
*456 wbs_dat_o[27]
*457 net501
*458 net502
*459 wbs_dat_o[2]
*460 net503
*461 net504
*462 wbs_dat_o[3]
*463 wbs_dat_o[4]
*464 wbs_dat_o[5]
*465 wbs_dat_o[6]
*466 wbs_dat_o[7]
*467 wbs_dat_o[8]
*468 wbs_dat_o[9]
*469 wbs_stb_i
*470 wbs_we_i
*471 _0000_
*472 _0001_
*473 _0002_
*474 _0003_
*475 _0004_
*476 _0005_
*477 _0006_
*478 _0007_
*479 _0008_
*480 _0009_
*481 _0010_
*482 _0011_
*483 _0012_
*484 _0013_
*485 _0014_
*486 _0015_
*487 _0016_
*488 _0017_
*489 _0018_
*490 _0019_
*491 _0020_
*492 _0021_
*493 _0022_
*494 _0023_
*495 _0024_
*496 _0025_
*497 _0026_
*498 _0027_
*499 _0028_
*500 _0029_
*501 _0030_
*502 _0031_
*503 _0032_
*504 _0033_
*505 _0034_
*506 _0035_
*507 _0036_
*508 _0037_
*509 _0038_
*510 _0039_
*511 _0040_
*512 _0041_
*513 _0042_
*514 _0043_
*515 _0044_
*516 _0045_
*517 _0046_
*518 _0047_
*519 _0048_
*520 _0049_
*521 _0050_
*522 _0051_
*523 _0052_
*524 _0053_
*525 _0054_
*526 _0055_
*527 _0056_
*528 _0057_
*529 _0058_
*530 _0059_
*531 _0060_
*532 _0061_
*533 _0062_
*534 _0063_
*535 _0064_
*536 _0065_
*537 _0066_
*538 _0067_
*539 _0068_
*540 _0069_
*541 _0070_
*542 _0071_
*543 _0072_
*544 _0073_
*545 _0074_
*546 _0075_
*547 _0076_
*548 _0077_
*549 _0078_
*550 _0079_
*551 _0080_
*552 _0081_
*553 _0082_
*554 _0083_
*555 _0084_
*556 _0085_
*557 _0086_
*558 _0087_
*559 _0088_
*560 _0089_
*561 _0090_
*562 _0091_
*563 _0092_
*564 _0093_
*565 _0094_
*566 _0095_
*567 _0096_
*568 _0097_
*569 _0098_
*570 _0099_
*571 _0100_
*572 _0101_
*573 _0102_
*574 _0103_
*575 _0104_
*576 _0105_
*577 _0106_
*578 _0107_
*579 _0108_
*580 _0109_
*581 _0110_
*582 _0111_
*583 _0112_
*584 _0113_
*585 _0114_
*586 _0115_
*587 _0116_
*588 _0117_
*589 _0118_
*590 _0119_
*591 _0120_
*592 _0121_
*593 _0122_
*594 _0123_
*595 _0124_
*596 _0125_
*597 _0126_
*598 _0127_
*599 _0128_
*600 _0129_
*601 _0130_
*602 _0131_
*603 _0132_
*604 _0133_
*605 _0134_
*606 _0135_
*607 _0136_
*608 _0137_
*609 _0138_
*610 _0139_
*611 _0140_
*612 _0141_
*613 _0142_
*614 _0143_
*615 _0144_
*616 _0145_
*617 _0146_
*618 _0147_
*619 _0148_
*620 _0149_
*621 _0150_
*622 _0151_
*623 _0152_
*624 _0153_
*625 _0154_
*626 _0155_
*627 _0156_
*628 _0157_
*629 _0158_
*630 _0159_
*631 _0160_
*632 _0161_
*633 _0162_
*634 _0163_
*635 _0164_
*636 _0165_
*637 _0166_
*638 _0167_
*639 _0168_
*640 _0169_
*641 _0170_
*642 _0171_
*643 _0172_
*644 _0173_
*645 _0174_
*646 _0175_
*647 _0176_
*648 _0177_
*649 _0178_
*650 _0179_
*651 _0180_
*652 _0181_
*653 _0182_
*654 _0183_
*655 _0184_
*656 _0185_
*657 _0186_
*658 _0187_
*659 _0188_
*660 _0189_
*661 _0190_
*662 _0191_
*663 _0192_
*664 _0193_
*665 _0194_
*666 _0195_
*667 _0196_
*668 _0197_
*669 _0198_
*670 _0199_
*671 _0200_
*672 _0201_
*673 _0202_
*674 _0203_
*675 _0204_
*676 _0205_
*677 _0206_
*678 _0207_
*679 _0208_
*680 _0209_
*681 _0210_
*682 _0211_
*683 _0212_
*684 _0213_
*685 _0214_
*686 _0215_
*687 _0216_
*688 _0217_
*689 _0218_
*690 _0219_
*691 _0220_
*692 _0221_
*693 _0222_
*694 _0223_
*695 _0224_
*696 _0225_
*697 _0226_
*698 _0227_
*699 _0228_
*700 _0229_
*701 _0230_
*702 _0231_
*703 _0232_
*704 _0233_
*705 _0234_
*706 _0235_
*707 _0236_
*708 _0237_
*709 _0238_
*710 _0239_
*711 _0240_
*712 _0241_
*713 _0242_
*714 _0243_
*715 _0244_
*716 _0245_
*717 _0246_
*718 _0247_
*719 _0248_
*720 _0249_
*721 _0250_
*722 _0251_
*723 _0252_
*724 _0253_
*725 _0254_
*726 _0255_
*727 _0256_
*728 _0257_
*729 _0258_
*730 _0259_
*731 _0260_
*732 _0261_
*733 _0262_
*734 _0263_
*735 _0264_
*736 _0265_
*737 _0266_
*738 _0267_
*739 _0268_
*740 _0269_
*741 _0270_
*742 _0271_
*743 _0272_
*744 _0273_
*745 _0274_
*746 _0275_
*747 _0276_
*748 _0277_
*749 _0278_
*750 _0279_
*751 _0280_
*752 _0281_
*753 _0282_
*754 _0283_
*755 _0284_
*756 _0285_
*757 _0286_
*758 _0287_
*759 _0288_
*760 _0289_
*761 _0290_
*762 _0291_
*763 _0292_
*764 _0293_
*765 _0294_
*766 _0295_
*767 _0296_
*768 _0297_
*769 _0298_
*770 _0299_
*771 _0300_
*772 _0301_
*773 _0302_
*774 _0303_
*775 _0304_
*776 _0305_
*777 _0306_
*778 _0307_
*779 _0308_
*780 _0309_
*781 _0310_
*782 _0311_
*783 _0312_
*784 _0313_
*785 _0314_
*786 _0315_
*787 _0316_
*788 _0317_
*789 _0318_
*790 _0319_
*791 _0320_
*792 _0321_
*793 _0322_
*794 _0323_
*795 _0324_
*796 _0325_
*797 _0326_
*798 _0327_
*799 _0328_
*800 _0329_
*801 _0330_
*802 _0331_
*803 _0332_
*804 _0333_
*805 _0334_
*806 _0335_
*807 _0336_
*808 _0337_
*809 _0338_
*810 _0339_
*811 _0340_
*812 _0341_
*813 _0342_
*814 _0343_
*815 _0344_
*816 _0345_
*817 _0346_
*818 _0347_
*819 _0348_
*820 _0349_
*821 _0350_
*822 _0351_
*823 _0352_
*824 _0353_
*825 _0354_
*826 _0355_
*827 _0356_
*828 _0357_
*829 _0358_
*830 _0359_
*831 _0360_
*832 _0361_
*833 _0362_
*834 _0363_
*835 _0364_
*836 _0365_
*837 _0366_
*838 _0367_
*839 _0368_
*840 _0369_
*841 _0370_
*842 _0371_
*843 _0372_
*844 _0373_
*845 _0374_
*846 _0375_
*847 _0376_
*848 _0377_
*849 _0378_
*850 _0379_
*851 _0380_
*852 _0381_
*853 _0382_
*854 _0383_
*855 _0384_
*856 _0385_
*857 _0386_
*858 _0387_
*859 _0388_
*860 _0389_
*861 _0390_
*862 _0391_
*863 _0392_
*864 _0393_
*865 _0394_
*866 _0395_
*867 _0396_
*868 _0397_
*869 _0398_
*870 _0399_
*871 _0400_
*872 _0401_
*873 _0402_
*874 _0403_
*875 _0404_
*876 _0405_
*877 _0406_
*878 _0407_
*879 _0408_
*880 _0409_
*881 _0410_
*882 _0411_
*883 _0412_
*884 _0413_
*885 _0414_
*886 _0415_
*887 _0416_
*888 _0417_
*889 _0418_
*890 _0419_
*891 _0420_
*892 _0421_
*893 _0422_
*894 _0423_
*895 _0424_
*896 _0425_
*897 _0426_
*898 _0427_
*899 _0428_
*900 _0429_
*901 _0430_
*902 _0431_
*903 _0432_
*904 _0433_
*905 _0434_
*906 _0435_
*907 _0436_
*908 _0437_
*909 _0438_
*910 _0439_
*911 _0440_
*912 _0441_
*913 _0442_
*914 _0443_
*915 _0444_
*916 _0445_
*917 _0446_
*918 _0447_
*919 _0448_
*920 clknet_0_wb_clk_i
*921 clknet_3_0__leaf_wb_clk_i
*922 clknet_3_1__leaf_wb_clk_i
*923 clknet_3_2__leaf_wb_clk_i
*924 clknet_3_3__leaf_wb_clk_i
*925 clknet_3_4__leaf_wb_clk_i
*926 clknet_3_5__leaf_wb_clk_i
*927 clknet_3_6__leaf_wb_clk_i
*928 clknet_3_7__leaf_wb_clk_i
*929 design_addr\[0\]
*930 design_addr\[1\]
*931 design_addr\[2\]
*932 design_addr\[3\]
*933 net1
*934 net10
*935 net100
*936 net101
*937 net102
*938 net103
*939 net104
*940 net105
*941 net106
*942 net107
*943 net108
*944 net109
*945 net11
*946 net110
*947 net111
*948 net112
*949 net113
*950 net114
*951 net115
*952 net116
*953 net117
*954 net118
*955 net119
*956 net12
*957 net120
*958 net121
*959 net122
*960 net123
*961 net124
*962 net125
*963 net126
*964 net127
*965 net128
*966 net129
*967 net13
*968 net130
*969 net131
*970 net132
*971 net133
*972 net134
*973 net135
*974 net136
*975 net137
*976 net138
*977 net139
*978 net14
*979 net140
*980 net141
*981 net142
*982 net143
*983 net144
*984 net145
*985 net146
*986 net147
*987 net148
*988 net149
*989 net15
*990 net150
*991 net151
*992 net152
*993 net153
*994 net154
*995 net155
*996 net156
*997 net157
*998 net158
*999 net159
*1000 net16
*1001 net160
*1002 net161
*1003 net162
*1004 net163
*1005 net164
*1006 net165
*1007 net166
*1008 net167
*1009 net168
*1010 net169
*1011 net17
*1012 net170
*1013 net171
*1014 net172
*1015 net173
*1016 net174
*1017 net175
*1018 net176
*1019 net177
*1020 net178
*1021 net179
*1022 net18
*1023 net180
*1024 net181
*1025 net182
*1026 net183
*1027 net184
*1028 net185
*1029 net186
*1030 net187
*1031 net188
*1032 net189
*1033 net19
*1034 net190
*1035 net191
*1036 net192
*1037 net193
*1038 net194
*1039 net195
*1040 net196
*1041 net197
*1042 net198
*1043 net199
*1044 net2
*1045 net20
*1046 net200
*1047 net201
*1048 net202
*1049 net203
*1050 net204
*1051 net205
*1052 net206
*1053 net207
*1054 net208
*1055 net209
*1056 net21
*1057 net210
*1058 net211
*1059 net212
*1060 net213
*1061 net214
*1062 net215
*1063 net216
*1064 net217
*1065 net218
*1066 net219
*1067 net22
*1068 net220
*1069 net221
*1070 net222
*1071 net223
*1072 net224
*1073 net225
*1074 net226
*1075 net227
*1076 net228
*1077 net229
*1078 net23
*1079 net230
*1080 net231
*1081 net232
*1082 net233
*1083 net234
*1084 net235
*1085 net236
*1086 net237
*1087 net238
*1088 net239
*1089 net24
*1090 net240
*1091 net241
*1092 net242
*1093 net243
*1094 net244
*1095 net245
*1096 net246
*1097 net247
*1098 net248
*1099 net249
*1100 net25
*1101 net250
*1102 net251
*1103 net252
*1104 net253
*1105 net254
*1106 net255
*1107 net256
*1108 net257
*1109 net258
*1110 net259
*1111 net26
*1112 net260
*1113 net261
*1114 net262
*1115 net263
*1116 net264
*1117 net265
*1118 net266
*1119 net267
*1120 net268
*1121 net269
*1122 net27
*1123 net270
*1124 net271
*1125 net272
*1126 net273
*1127 net274
*1128 net275
*1129 net276
*1130 net277
*1131 net278
*1132 net279
*1133 net28
*1134 net280
*1135 net281
*1136 net282
*1137 net283
*1138 net284
*1139 net285
*1140 net286
*1141 net287
*1142 net288
*1143 net289
*1144 net29
*1145 net290
*1146 net291
*1147 net292
*1148 net293
*1149 net294
*1150 net295
*1151 net296
*1152 net297
*1153 net298
*1154 net299
*1155 net3
*1156 net30
*1157 net300
*1158 net301
*1159 net302
*1160 net303
*1161 net304
*1162 net305
*1163 net306
*1164 net307
*1165 net308
*1166 net309
*1167 net31
*1168 net310
*1169 net311
*1170 net312
*1171 net313
*1172 net314
*1173 net315
*1174 net316
*1175 net317
*1176 net318
*1177 net319
*1178 net32
*1179 net320
*1180 net321
*1181 net322
*1182 net323
*1183 net324
*1184 net325
*1185 net326
*1186 net327
*1187 net328
*1188 net329
*1189 net33
*1190 net330
*1191 net331
*1192 net332
*1193 net333
*1194 net334
*1195 net335
*1196 net336
*1197 net337
*1198 net338
*1199 net339
*1200 net34
*1201 net340
*1202 net341
*1203 net342
*1204 net343
*1205 net344
*1206 net345
*1207 net346
*1208 net347
*1209 net348
*1210 net349
*1211 net35
*1212 net350
*1213 net351
*1214 net352
*1215 net353
*1216 net354
*1217 net355
*1218 net356
*1219 net357
*1220 net358
*1221 net359
*1222 net36
*1223 net360
*1224 net361
*1225 net362
*1226 net363
*1227 net364
*1228 net365
*1229 net366
*1230 net367
*1231 net368
*1232 net369
*1233 net37
*1234 net370
*1235 net371
*1236 net372
*1237 net373
*1238 net374
*1239 net375
*1240 net376
*1241 net377
*1242 net378
*1243 net379
*1244 net38
*1245 net380
*1246 net381
*1247 net382
*1248 net383
*1249 net384
*1250 net385
*1251 net386
*1252 net387
*1253 net388
*1254 net389
*1255 net39
*1256 net390
*1257 net391
*1258 net392
*1259 net393
*1260 net394
*1261 net395
*1262 net396
*1263 net397
*1264 net398
*1265 net399
*1266 net4
*1267 net40
*1268 net400
*1269 net401
*1270 net402
*1271 net403
*1272 net404
*1273 net405
*1274 net406
*1275 net407
*1276 net408
*1277 net409
*1278 net41
*1279 net410
*1280 net411
*1281 net412
*1282 net413
*1283 net414
*1284 net415
*1285 net416
*1286 net417
*1287 net418
*1288 net419
*1289 net42
*1290 net420
*1291 net421
*1292 net422
*1293 net423
*1294 net424
*1295 net425
*1296 net426
*1297 net427
*1298 net428
*1299 net429
*1300 net43
*1301 net430
*1302 net431
*1303 net432
*1304 net433
*1305 net434
*1306 net435
*1307 net436
*1308 net437
*1309 net438
*1310 net439
*1311 net44
*1312 net440
*1313 net441
*1314 net442
*1315 net443
*1316 net444
*1317 net445
*1318 net446
*1319 net447
*1320 net448
*1321 net449
*1322 net45
*1323 net450
*1324 net451
*1325 net452
*1326 net453
*1327 net454
*1328 net455
*1329 net456
*1330 net457
*1331 net458
*1332 net459
*1333 net46
*1334 net460
*1335 net461
*1336 net462
*1337 net463
*1338 net464
*1339 net465
*1340 net466
*1341 net467
*1342 net468
*1343 net469
*1344 net47
*1345 net470
*1346 net471
*1347 net472
*1348 net473
*1349 net474
*1350 net475
*1351 net476
*1352 net477
*1353 net478
*1354 net479
*1355 net48
*1356 net480
*1357 net481
*1358 net482
*1359 net483
*1360 net484
*1361 net485
*1362 net486
*1363 net487
*1364 net488
*1365 net489
*1366 net49
*1367 net490
*1368 net5
*1369 net50
*1370 net51
*1371 net511
*1372 net512
*1373 net513
*1374 net514
*1375 net515
*1376 net516
*1377 net517
*1378 net518
*1379 net519
*1380 net52
*1381 net520
*1382 net521
*1383 net522
*1384 net523
*1385 net524
*1386 net525
*1387 net526
*1388 net527
*1389 net528
*1390 net529
*1391 net53
*1392 net530
*1393 net531
*1394 net532
*1395 net533
*1396 net534
*1397 net535
*1398 net536
*1399 net537
*1400 net538
*1401 net539
*1402 net54
*1403 net540
*1404 net541
*1405 net542
*1406 net543
*1407 net544
*1408 net545
*1409 net546
*1410 net547
*1411 net548
*1412 net549
*1413 net55
*1414 net550
*1415 net551
*1416 net552
*1417 net553
*1418 net554
*1419 net555
*1420 net556
*1421 net557
*1422 net558
*1423 net559
*1424 net56
*1425 net560
*1426 net561
*1427 net562
*1428 net563
*1429 net564
*1430 net565
*1431 net566
*1432 net567
*1433 net568
*1434 net569
*1435 net57
*1436 net570
*1437 net571
*1438 net572
*1439 net573
*1440 net574
*1441 net575
*1442 net576
*1443 net577
*1444 net578
*1445 net579
*1446 net58
*1447 net580
*1448 net581
*1449 net59
*1450 net6
*1451 net60
*1452 net61
*1453 net62
*1454 net63
*1455 net64
*1456 net65
*1457 net66
*1458 net67
*1459 net68
*1460 net69
*1461 net7
*1462 net70
*1463 net71
*1464 net72
*1465 net73
*1466 net74
*1467 net75
*1468 net76
*1469 net77
*1470 net78
*1471 net79
*1472 net8
*1473 net80
*1474 net81
*1475 net82
*1476 net83
*1477 net84
*1478 net85
*1479 net86
*1480 net87
*1481 net88
*1482 net89
*1483 net9
*1484 net90
*1485 net91
*1486 net92
*1487 net93
*1488 net94
*1489 net95
*1490 net96
*1491 net97
*1492 net98
*1493 net99
*1494 wb_clk_override
*1495 wb_counter\[0\]
*1496 wb_counter\[10\]
*1497 wb_counter\[11\]
*1498 wb_counter\[12\]
*1499 wb_counter\[13\]
*1500 wb_counter\[14\]
*1501 wb_counter\[15\]
*1502 wb_counter\[16\]
*1503 wb_counter\[17\]
*1504 wb_counter\[18\]
*1505 wb_counter\[19\]
*1506 wb_counter\[20\]
*1507 wb_counter\[21\]
*1508 wb_counter\[22\]
*1509 wb_counter\[23\]
*1510 wb_counter\[5\]
*1511 wb_counter\[6\]
*1512 wb_counter\[7\]
*1513 wb_counter\[8\]
*1514 wb_counter\[9\]
*1515 wb_design_addr_override\[0\]
*1516 wb_design_addr_override\[1\]
*1517 wb_design_addr_override\[2\]
*1518 wb_design_addr_override\[3\]
*1519 wb_feedback_delay
*1520 wb_io_override\[0\]
*1521 wb_io_override\[10\]
*1522 wb_io_override\[11\]
*1523 wb_io_override\[12\]
*1524 wb_io_override\[13\]
*1525 wb_io_override\[14\]
*1526 wb_io_override\[15\]
*1527 wb_io_override\[16\]
*1528 wb_io_override\[17\]
*1529 wb_io_override\[18\]
*1530 wb_io_override\[19\]
*1531 wb_io_override\[1\]
*1532 wb_io_override\[20\]
*1533 wb_io_override\[21\]
*1534 wb_io_override\[22\]
*1535 wb_io_override\[23\]
*1536 wb_io_override\[24\]
*1537 wb_io_override\[25\]
*1538 wb_io_override\[26\]
*1539 wb_io_override\[27\]
*1540 wb_io_override\[2\]
*1541 wb_io_override\[3\]
*1542 wb_io_override\[4\]
*1543 wb_io_override\[5\]
*1544 wb_io_override\[6\]
*1545 wb_io_override\[7\]
*1546 wb_io_override\[8\]
*1547 wb_io_override\[9\]
*1548 wb_override
*1549 wb_rst_override
*1550 wb_single_step
*1551 ANTENNA_1
*1552 ANTENNA_10
*1553 ANTENNA_11
*1554 ANTENNA_12
*1555 ANTENNA_13
*1556 ANTENNA_14
*1557 ANTENNA_15
*1558 ANTENNA_16
*1559 ANTENNA_17
*1560 ANTENNA_18
*1561 ANTENNA_19
*1562 ANTENNA_2
*1563 ANTENNA_20
*1564 ANTENNA_21
*1565 ANTENNA_22
*1566 ANTENNA_23
*1567 ANTENNA_24
*1568 ANTENNA_25
*1569 ANTENNA_26
*1570 ANTENNA_27
*1571 ANTENNA_28
*1572 ANTENNA_29
*1573 ANTENNA_3
*1574 ANTENNA_30
*1575 ANTENNA_31
*1576 ANTENNA_32
*1577 ANTENNA_33
*1578 ANTENNA_34
*1579 ANTENNA_35
*1580 ANTENNA_36
*1581 ANTENNA_37
*1582 ANTENNA_38
*1583 ANTENNA_39
*1584 ANTENNA_4
*1585 ANTENNA_40
*1586 ANTENNA_41
*1587 ANTENNA_5
*1588 ANTENNA_6
*1589 ANTENNA_7
*1590 ANTENNA_8
*1591 ANTENNA_9
*1592 FILLER_0_102
*1593 FILLER_0_11
*1594 FILLER_0_110
*1595 FILLER_0_113
*1596 FILLER_0_118
*1597 FILLER_0_128
*1598 FILLER_0_138
*1599 FILLER_0_141
*1600 FILLER_0_146
*1601 FILLER_0_156
*1602 FILLER_0_166
*1603 FILLER_0_169
*1604 FILLER_0_174
*1605 FILLER_0_184
*1606 FILLER_0_19
*1607 FILLER_0_194
*1608 FILLER_0_197
*1609 FILLER_0_202
*1610 FILLER_0_210
*1611 FILLER_0_214
*1612 FILLER_0_222
*1613 FILLER_0_225
*1614 FILLER_0_230
*1615 FILLER_0_240
*1616 FILLER_0_250
*1617 FILLER_0_253
*1618 FILLER_0_258
*1619 FILLER_0_26
*1620 FILLER_0_268
*1621 FILLER_0_278
*1622 FILLER_0_281
*1623 FILLER_0_286
*1624 FILLER_0_29
*1625 FILLER_0_296
*1626 FILLER_0_3
*1627 FILLER_0_306
*1628 FILLER_0_309
*1629 FILLER_0_315
*1630 FILLER_0_322
*1631 FILLER_0_33
*1632 FILLER_0_332
*1633 FILLER_0_337
*1634 FILLER_0_345
*1635 FILLER_0_355
*1636 FILLER_0_363
*1637 FILLER_0_365
*1638 FILLER_0_373
*1639 FILLER_0_38
*1640 FILLER_0_383
*1641 FILLER_0_391
*1642 FILLER_0_393
*1643 FILLER_0_401
*1644 FILLER_0_411
*1645 FILLER_0_419
*1646 FILLER_0_421
*1647 FILLER_0_429
*1648 FILLER_0_439
*1649 FILLER_0_447
*1650 FILLER_0_449
*1651 FILLER_0_46
*1652 FILLER_0_460
*1653 FILLER_0_468
*1654 FILLER_0_477
*1655 FILLER_0_483
*1656 FILLER_0_487
*1657 FILLER_0_494
*1658 FILLER_0_502
*1659 FILLER_0_505
*1660 FILLER_0_513
*1661 FILLER_0_523
*1662 FILLER_0_531
*1663 FILLER_0_533
*1664 FILLER_0_539
*1665 FILLER_0_54
*1666 FILLER_0_547
*1667 FILLER_0_555
*1668 FILLER_0_559
*1669 FILLER_0_561
*1670 FILLER_0_569
*1671 FILLER_0_57
*1672 FILLER_0_579
*1673 FILLER_0_587
*1674 FILLER_0_589
*1675 FILLER_0_597
*1676 FILLER_0_605
*1677 FILLER_0_61
*1678 FILLER_0_614
*1679 FILLER_0_617
*1680 FILLER_0_623
*1681 FILLER_0_66
*1682 FILLER_0_74
*1683 FILLER_0_82
*1684 FILLER_0_85
*1685 FILLER_0_89
*1686 FILLER_0_94
*1687 FILLER_100_109
*1688 FILLER_100_11
*1689 FILLER_100_121
*1690 FILLER_100_133
*1691 FILLER_100_139
*1692 FILLER_100_141
*1693 FILLER_100_153
*1694 FILLER_100_165
*1695 FILLER_100_177
*1696 FILLER_100_189
*1697 FILLER_100_195
*1698 FILLER_100_197
*1699 FILLER_100_209
*1700 FILLER_100_221
*1701 FILLER_100_23
*1702 FILLER_100_233
*1703 FILLER_100_245
*1704 FILLER_100_251
*1705 FILLER_100_253
*1706 FILLER_100_265
*1707 FILLER_100_27
*1708 FILLER_100_277
*1709 FILLER_100_289
*1710 FILLER_100_29
*1711 FILLER_100_3
*1712 FILLER_100_301
*1713 FILLER_100_307
*1714 FILLER_100_309
*1715 FILLER_100_321
*1716 FILLER_100_333
*1717 FILLER_100_339
*1718 FILLER_100_354
*1719 FILLER_100_362
*1720 FILLER_100_365
*1721 FILLER_100_377
*1722 FILLER_100_389
*1723 FILLER_100_401
*1724 FILLER_100_41
*1725 FILLER_100_413
*1726 FILLER_100_419
*1727 FILLER_100_421
*1728 FILLER_100_433
*1729 FILLER_100_445
*1730 FILLER_100_457
*1731 FILLER_100_469
*1732 FILLER_100_475
*1733 FILLER_100_477
*1734 FILLER_100_489
*1735 FILLER_100_501
*1736 FILLER_100_513
*1737 FILLER_100_525
*1738 FILLER_100_53
*1739 FILLER_100_531
*1740 FILLER_100_533
*1741 FILLER_100_545
*1742 FILLER_100_557
*1743 FILLER_100_569
*1744 FILLER_100_581
*1745 FILLER_100_587
*1746 FILLER_100_589
*1747 FILLER_100_601
*1748 FILLER_100_613
*1749 FILLER_100_623
*1750 FILLER_100_65
*1751 FILLER_100_77
*1752 FILLER_100_83
*1753 FILLER_100_85
*1754 FILLER_100_97
*1755 FILLER_101_105
*1756 FILLER_101_111
*1757 FILLER_101_113
*1758 FILLER_101_125
*1759 FILLER_101_137
*1760 FILLER_101_149
*1761 FILLER_101_161
*1762 FILLER_101_167
*1763 FILLER_101_169
*1764 FILLER_101_181
*1765 FILLER_101_193
*1766 FILLER_101_205
*1767 FILLER_101_21
*1768 FILLER_101_217
*1769 FILLER_101_223
*1770 FILLER_101_225
*1771 FILLER_101_237
*1772 FILLER_101_249
*1773 FILLER_101_261
*1774 FILLER_101_273
*1775 FILLER_101_279
*1776 FILLER_101_281
*1777 FILLER_101_293
*1778 FILLER_101_3
*1779 FILLER_101_305
*1780 FILLER_101_317
*1781 FILLER_101_329
*1782 FILLER_101_33
*1783 FILLER_101_335
*1784 FILLER_101_337
*1785 FILLER_101_349
*1786 FILLER_101_361
*1787 FILLER_101_373
*1788 FILLER_101_384
*1789 FILLER_101_393
*1790 FILLER_101_405
*1791 FILLER_101_417
*1792 FILLER_101_429
*1793 FILLER_101_441
*1794 FILLER_101_447
*1795 FILLER_101_449
*1796 FILLER_101_45
*1797 FILLER_101_461
*1798 FILLER_101_473
*1799 FILLER_101_485
*1800 FILLER_101_497
*1801 FILLER_101_503
*1802 FILLER_101_505
*1803 FILLER_101_517
*1804 FILLER_101_529
*1805 FILLER_101_53
*1806 FILLER_101_541
*1807 FILLER_101_553
*1808 FILLER_101_559
*1809 FILLER_101_561
*1810 FILLER_101_57
*1811 FILLER_101_573
*1812 FILLER_101_585
*1813 FILLER_101_597
*1814 FILLER_101_609
*1815 FILLER_101_615
*1816 FILLER_101_617
*1817 FILLER_101_69
*1818 FILLER_101_81
*1819 FILLER_101_9
*1820 FILLER_101_93
*1821 FILLER_102_109
*1822 FILLER_102_11
*1823 FILLER_102_121
*1824 FILLER_102_133
*1825 FILLER_102_139
*1826 FILLER_102_141
*1827 FILLER_102_153
*1828 FILLER_102_165
*1829 FILLER_102_177
*1830 FILLER_102_189
*1831 FILLER_102_195
*1832 FILLER_102_197
*1833 FILLER_102_209
*1834 FILLER_102_221
*1835 FILLER_102_23
*1836 FILLER_102_233
*1837 FILLER_102_245
*1838 FILLER_102_251
*1839 FILLER_102_253
*1840 FILLER_102_265
*1841 FILLER_102_27
*1842 FILLER_102_277
*1843 FILLER_102_289
*1844 FILLER_102_29
*1845 FILLER_102_3
*1846 FILLER_102_301
*1847 FILLER_102_307
*1848 FILLER_102_309
*1849 FILLER_102_321
*1850 FILLER_102_333
*1851 FILLER_102_345
*1852 FILLER_102_357
*1853 FILLER_102_363
*1854 FILLER_102_365
*1855 FILLER_102_369
*1856 FILLER_102_387
*1857 FILLER_102_399
*1858 FILLER_102_41
*1859 FILLER_102_411
*1860 FILLER_102_419
*1861 FILLER_102_421
*1862 FILLER_102_433
*1863 FILLER_102_445
*1864 FILLER_102_457
*1865 FILLER_102_469
*1866 FILLER_102_475
*1867 FILLER_102_477
*1868 FILLER_102_489
*1869 FILLER_102_501
*1870 FILLER_102_513
*1871 FILLER_102_525
*1872 FILLER_102_53
*1873 FILLER_102_531
*1874 FILLER_102_533
*1875 FILLER_102_545
*1876 FILLER_102_557
*1877 FILLER_102_569
*1878 FILLER_102_581
*1879 FILLER_102_587
*1880 FILLER_102_589
*1881 FILLER_102_601
*1882 FILLER_102_613
*1883 FILLER_102_623
*1884 FILLER_102_65
*1885 FILLER_102_77
*1886 FILLER_102_83
*1887 FILLER_102_85
*1888 FILLER_102_97
*1889 FILLER_103_105
*1890 FILLER_103_11
*1891 FILLER_103_111
*1892 FILLER_103_113
*1893 FILLER_103_125
*1894 FILLER_103_137
*1895 FILLER_103_149
*1896 FILLER_103_161
*1897 FILLER_103_167
*1898 FILLER_103_169
*1899 FILLER_103_181
*1900 FILLER_103_193
*1901 FILLER_103_205
*1902 FILLER_103_217
*1903 FILLER_103_223
*1904 FILLER_103_225
*1905 FILLER_103_23