*SPEF "ieee 1481-1999"
*DESIGN "posit_unit"
*DATE "11:11:11 Fri 11 11, 1111"
*VENDOR "OpenRCX"
*PROGRAM "Parallel Extraction"
*VERSION "1.0"
*DESIGN_FLOW "NAME_SCOPE LOCAL" "PIN_CAP NONE"
*DIVIDER /
*DELIMITER :
*BUS_DELIMITER []
*T_UNIT 1 NS
*C_UNIT 1 PF
*R_UNIT 1 OHM
*L_UNIT 1 HENRY

*NAME_MAP
*1 clk
*2 io_in[0]
*3 io_in[1]
*4 io_in[2]
*5 net243
*6 net244
*7 net245
*8 io_out[3]
*9 rst
*12 _0000_
*13 _0001_
*14 _0002_
*15 _0003_
*16 _0004_
*17 _0005_
*18 _0006_
*19 _0007_
*20 _0008_
*21 _0009_
*22 _0010_
*23 _0011_
*24 _0012_
*25 _0013_
*26 _0014_
*27 _0015_
*28 _0016_
*29 _0017_
*30 _0018_
*31 _0019_
*32 _0020_
*33 _0021_
*34 _0022_
*35 _0023_
*36 _0024_
*37 _0025_
*38 _0026_
*39 _0027_
*40 _0028_
*41 _0029_
*42 _0030_
*43 _0031_
*44 _0032_
*45 _0033_
*46 _0034_
*47 _0035_
*48 _0036_
*49 _0037_
*50 _0038_
*51 _0039_
*52 _0040_
*53 _0041_
*54 _0042_
*55 _0043_
*56 _0044_
*57 _0045_
*58 _0046_
*59 _0047_
*60 _0048_
*61 _0049_
*62 _0050_
*63 _0051_
*64 _0052_
*65 _0053_
*66 _0054_
*67 _0055_
*68 _0056_
*69 _0057_
*70 _0058_
*71 _0059_
*72 _0060_
*73 _0061_
*74 _0062_
*75 _0063_
*76 _0064_
*77 _0065_
*78 _0066_
*79 _0067_
*80 _0068_
*81 _0069_
*82 _0070_
*83 _0071_
*84 _0072_
*85 _0073_
*86 _0074_
*87 _0075_
*88 _0076_
*89 _0077_
*90 _0078_
*91 _0079_
*92 _0080_
*93 _0081_
*94 _0082_
*95 _0083_
*96 _0084_
*97 _0085_
*98 _0086_
*99 _0087_
*100 _0088_
*101 _0089_
*102 _0090_
*103 _0091_
*104 _0092_
*105 _0093_
*106 _0094_
*107 _0095_
*108 _0096_
*109 _0097_
*110 _0098_
*111 _0099_
*112 _0100_
*113 _0101_
*114 _0102_
*115 _0103_
*116 _0104_
*117 _0105_
*118 _0106_
*119 _0107_
*120 _0108_
*121 _0109_
*122 _0110_
*123 _0111_
*124 _0112_
*125 _0113_
*126 _0114_
*127 _0115_
*128 _0116_
*129 _0117_
*130 _0118_
*131 _0119_
*132 _0120_
*133 _0121_
*134 _0122_
*135 _0123_
*136 _0124_
*137 _0125_
*138 _0126_
*139 _0127_
*140 _0128_
*141 _0129_
*142 _0130_
*143 _0131_
*144 _0132_
*145 _0133_
*146 _0134_
*147 _0135_
*148 _0136_
*149 _0137_
*150 _0138_
*151 _0139_
*152 _0140_
*153 _0141_
*154 _0142_
*155 _0143_
*156 _0144_
*157 _0145_
*158 _0146_
*159 _0147_
*160 _0148_
*161 _0149_
*162 _0150_
*163 _0151_
*164 _0152_
*165 _0153_
*166 _0154_
*167 _0155_
*168 _0156_
*169 _0157_
*170 _0158_
*171 _0159_
*172 _0160_
*173 _0161_
*174 _0162_
*175 _0163_
*176 _0164_
*177 _0165_
*178 _0166_
*179 _0167_
*180 _0168_
*181 _0169_
*182 _0170_
*183 _0171_
*184 _0172_
*185 _0173_
*186 _0174_
*187 _0175_
*188 _0176_
*189 _0177_
*190 _0178_
*191 _0179_
*192 _0180_
*193 _0181_
*194 _0182_
*195 _0183_
*196 _0184_
*197 _0185_
*198 _0186_
*199 _0187_
*200 _0188_
*201 _0189_
*202 _0190_
*203 _0191_
*204 _0192_
*205 _0193_
*206 _0194_
*207 _0195_
*208 _0196_
*209 _0197_
*210 _0198_
*211 _0199_
*212 _0200_
*213 _0201_
*214 _0202_
*215 _0203_
*216 _0204_
*217 _0205_
*218 _0206_
*219 _0207_
*220 _0208_
*221 _0209_
*222 _0210_
*223 _0211_
*224 _0212_
*225 _0213_
*226 _0214_
*227 _0215_
*228 _0216_
*229 _0217_
*230 _0218_
*231 _0219_
*232 _0220_
*233 _0221_
*234 _0222_
*235 _0223_
*236 _0224_
*237 _0225_
*238 _0226_
*239 _0227_
*240 _0228_
*241 _0229_
*242 _0230_
*243 _0231_
*244 _0232_
*245 _0233_
*246 _0234_
*247 _0235_
*248 _0236_
*249 _0237_
*250 _0238_
*251 _0239_
*252 _0240_
*253 _0241_
*254 _0242_
*255 _0243_
*256 _0244_
*257 _0245_
*258 _0246_
*259 _0247_
*260 _0248_
*261 _0249_
*262 _0250_
*263 _0251_
*264 _0252_
*265 _0253_
*266 _0254_
*267 _0255_
*268 _0256_
*269 _0257_
*270 _0258_
*271 _0259_
*272 _0260_
*273 _0261_
*274 _0262_
*275 _0263_
*276 _0264_
*277 _0265_
*278 _0266_
*279 _0267_
*280 _0268_
*281 _0269_
*282 _0270_
*283 _0271_
*284 _0272_
*285 _0273_
*286 _0274_
*287 _0275_
*288 _0276_
*289 _0277_
*290 _0278_
*291 _0279_
*292 _0280_
*293 _0281_
*294 _0282_
*295 _0283_
*296 _0284_
*297 _0285_
*298 _0286_
*299 _0287_
*300 _0288_
*301 _0289_
*302 _0290_
*303 _0291_
*304 _0292_
*305 _0293_
*306 _0294_
*307 _0295_
*308 _0296_
*309 _0297_
*310 _0298_
*311 _0299_
*312 _0300_
*313 _0301_
*314 _0302_
*315 _0303_
*316 _0304_
*317 _0305_
*318 _0306_
*319 _0307_
*320 _0308_
*321 _0309_
*322 _0310_
*323 _0311_
*324 _0312_
*325 _0313_
*326 _0314_
*327 _0315_
*328 _0316_
*329 _0317_
*330 _0318_
*331 _0319_
*332 _0320_
*333 _0321_
*334 _0322_
*335 _0323_
*336 _0324_
*337 _0325_
*338 _0326_
*339 _0327_
*340 _0328_
*341 _0329_
*342 _0330_
*343 _0331_
*344 _0332_
*345 _0333_
*346 _0334_
*347 _0335_
*348 _0336_
*349 _0337_
*350 _0338_
*351 _0339_
*352 _0340_
*353 _0341_
*354 _0342_
*355 _0343_
*356 _0344_
*357 _0345_
*358 _0346_
*359 _0347_
*360 _0348_
*361 _0349_
*362 _0350_
*363 _0351_
*364 _0352_
*365 _0353_
*366 _0354_
*367 _0355_
*368 _0356_
*369 _0357_
*370 _0358_
*371 _0359_
*372 _0360_
*373 _0361_
*374 _0362_
*375 _0363_
*376 _0364_
*377 _0365_
*378 _0366_
*379 _0367_
*380 _0368_
*381 _0369_
*382 _0370_
*383 _0371_
*384 _0372_
*385 _0373_
*386 _0374_
*387 _0375_
*388 _0376_
*389 _0377_
*390 _0378_
*391 _0379_
*392 _0380_
*393 _0381_
*394 _0382_
*395 _0383_
*396 _0384_
*397 _0385_
*398 _0386_
*399 _0387_
*400 _0388_
*401 _0389_
*402 _0390_
*403 _0391_
*404 _0392_
*405 _0393_
*406 _0394_
*407 _0395_
*408 _0396_
*409 _0397_
*410 _0398_
*411 _0399_
*412 _0400_
*413 _0401_
*414 _0402_
*415 _0403_
*416 _0404_
*417 _0405_
*418 _0406_
*419 _0407_
*420 _0408_
*421 _0409_
*422 _0410_
*423 _0411_
*424 _0412_
*425 _0413_
*426 _0414_
*427 _0415_
*428 _0416_
*429 _0417_
*430 _0418_
*431 _0419_
*432 _0420_
*433 _0421_
*434 _0422_
*435 _0423_
*436 _0424_
*437 _0425_
*438 _0426_
*439 _0427_
*440 _0428_
*441 _0429_
*442 _0430_
*443 _0431_
*444 _0432_
*445 _0433_
*446 _0434_
*447 _0435_
*448 _0436_
*449 _0437_
*450 _0438_
*451 _0439_
*452 _0440_
*453 _0441_
*454 _0442_
*455 _0443_
*456 _0444_
*457 _0445_
*458 _0446_
*459 _0447_
*460 _0448_
*461 _0449_
*462 _0450_
*463 _0451_
*464 _0452_
*465 _0453_
*466 _0454_
*467 _0455_
*468 _0456_
*469 _0457_
*470 _0458_
*471 _0459_
*472 _0460_
*473 _0461_
*474 _0462_
*475 _0463_
*476 _0464_
*477 _0465_
*478 _0466_
*479 _0467_
*480 _0468_
*481 _0469_
*482 _0470_
*483 _0471_
*484 _0472_
*485 _0473_
*486 _0474_
*487 _0475_
*488 _0476_
*489 _0477_
*490 _0478_
*491 _0479_
*492 _0480_
*493 _0481_
*494 _0482_
*495 _0483_
*496 _0484_
*497 _0485_
*498 _0486_
*499 _0487_
*500 _0488_
*501 _0489_
*502 _0490_
*503 _0491_
*504 _0492_
*505 _0493_
*506 _0494_
*507 _0495_
*508 _0496_
*509 _0497_
*510 _0498_
*511 _0499_
*512 _0500_
*513 _0501_
*514 _0502_
*515 _0503_
*516 _0504_
*517 _0505_
*518 _0506_
*519 _0507_
*520 _0508_
*521 _0509_
*522 _0510_
*523 _0511_
*524 _0512_
*525 _0513_
*526 _0514_
*527 _0515_
*528 _0516_
*529 _0517_
*530 _0518_
*531 _0519_
*532 _0520_
*533 _0521_
*534 _0522_
*535 _0523_
*536 _0524_
*537 _0525_
*538 _0526_
*539 _0527_
*540 _0528_
*541 _0529_
*542 _0530_
*543 _0531_
*544 _0532_
*545 _0533_
*546 _0534_
*547 _0535_
*548 _0536_
*549 _0537_
*550 _0538_
*551 _0539_
*552 _0540_
*553 _0541_
*554 _0542_
*555 _0543_
*556 _0544_
*557 _0545_
*558 _0546_
*559 _0547_
*560 _0548_
*561 _0549_
*562 _0550_
*563 _0551_
*564 _0552_
*565 _0553_
*566 _0554_
*567 _0555_
*568 _0556_
*569 _0557_
*570 _0558_
*571 _0559_
*572 _0560_
*573 _0561_
*574 _0562_
*575 _0563_
*576 _0564_
*577 _0565_
*578 _0566_
*579 _0567_
*580 _0568_
*581 _0569_
*582 _0570_
*583 _0571_
*584 _0572_
*585 _0573_
*586 _0574_
*587 _0575_
*588 _0576_
*589 _0577_
*590 _0578_
*591 _0579_
*592 _0580_
*593 _0581_
*594 _0582_
*595 _0583_
*596 _0584_
*597 _0585_
*598 _0586_
*599 _0587_
*600 _0588_
*601 _0589_
*602 _0590_
*603 _0591_
*604 _0592_
*605 _0593_
*606 _0594_
*607 _0595_
*608 _0596_
*609 _0597_
*610 _0598_
*611 _0599_
*612 _0600_
*613 _0601_
*614 _0602_
*615 _0603_
*616 _0604_
*617 _0605_
*618 _0606_
*619 _0607_
*620 _0608_
*621 _0609_
*622 _0610_
*623 _0611_
*624 _0612_
*625 _0613_
*626 _0614_
*627 _0615_
*628 _0616_
*629 _0617_
*630 _0618_
*631 _0619_
*632 _0620_
*633 _0621_
*634 _0622_
*635 _0623_
*636 _0624_
*637 _0625_
*638 _0626_
*639 _0627_
*640 _0628_
*641 _0629_
*642 _0630_
*643 _0631_
*644 _0632_
*645 _0633_
*646 _0634_
*647 _0635_
*648 _0636_
*649 _0637_
*650 _0638_
*651 _0639_
*652 _0640_
*653 _0641_
*654 _0642_
*655 _0643_
*656 _0644_
*657 _0645_
*658 _0646_
*659 _0647_
*660 _0648_
*661 _0649_
*662 _0650_
*663 _0651_
*664 _0652_
*665 _0653_
*666 _0654_
*667 _0655_
*668 _0656_
*669 _0657_
*670 _0658_
*671 _0659_
*672 _0660_
*673 _0661_
*674 _0662_
*675 _0663_
*676 _0664_
*677 _0665_
*678 _0666_
*679 _0667_
*680 _0668_
*681 _0669_
*682 _0670_
*683 _0671_
*684 _0672_
*685 _0673_
*686 _0674_
*687 _0675_
*688 _0676_
*689 _0677_
*690 _0678_
*691 _0679_
*692 _0680_
*693 _0681_
*694 _0682_
*695 _0683_
*696 _0684_
*697 _0685_
*698 _0686_
*699 _0687_
*700 _0688_
*701 _0689_
*702 _0690_
*703 _0691_
*704 _0692_
*705 _0693_
*706 _0694_
*707 _0695_
*708 _0696_
*709 _0697_
*710 _0698_
*711 _0699_
*712 _0700_
*713 _0701_
*714 _0702_
*715 _0703_
*716 _0704_
*717 _0705_
*718 _0706_
*719 _0707_
*720 _0708_
*721 _0709_
*722 _0710_
*723 _0711_
*724 _0712_
*725 _0713_
*726 _0714_
*727 _0715_
*728 _0716_
*729 _0717_
*730 _0718_
*731 _0719_
*732 _0720_
*733 _0721_
*734 _0722_
*735 _0723_
*736 _0724_
*737 _0725_
*738 _0726_
*739 _0727_
*740 _0728_
*741 _0729_
*742 _0730_
*743 _0731_
*744 _0732_
*745 _0733_
*746 _0734_
*747 _0735_
*748 _0736_
*749 _0737_
*750 _0738_
*751 _0739_
*752 _0740_
*753 _0741_
*754 _0742_
*755 _0743_
*756 _0744_
*757 _0745_
*758 _0746_
*759 _0747_
*760 _0748_
*761 _0749_
*762 _0750_
*763 _0751_
*764 _0752_
*765 _0753_
*766 _0754_
*767 _0755_
*768 _0756_
*769 _0757_
*770 _0758_
*771 _0759_
*772 _0760_
*773 _0761_
*774 _0762_
*775 _0763_
*776 _0764_
*777 _0765_
*778 _0766_
*779 _0767_
*780 _0768_
*781 _0769_
*782 _0770_
*783 _0771_
*784 _0772_
*785 _0773_
*786 _0774_
*787 _0775_
*788 _0776_
*789 _0777_
*790 _0778_
*791 _0779_
*792 _0780_
*793 _0781_
*794 _0782_
*795 _0783_
*796 _0784_
*797 _0785_
*798 _0786_
*799 _0787_
*800 _0788_
*801 _0789_
*802 _0790_
*803 _0791_
*804 _0792_
*805 _0793_
*806 _0794_
*807 _0795_
*808 _0796_
*809 _0797_
*810 _0798_
*811 _0799_
*812 _0800_
*813 _0801_
*814 _0802_
*815 _0803_
*816 _0804_
*817 _0805_
*818 _0806_
*819 _0807_
*820 _0808_
*821 _0809_
*822 _0810_
*823 _0811_
*824 _0812_
*825 _0813_
*826 _0814_
*827 _0815_
*828 _0816_
*829 _0817_
*830 _0818_
*831 _0819_
*832 _0820_
*833 _0821_
*834 _0822_
*835 _0823_
*836 _0824_
*837 _0825_
*838 _0826_
*839 _0827_
*840 _0828_
*841 _0829_
*842 _0830_
*843 _0831_
*844 _0832_
*845 _0833_
*846 _0834_
*847 _0835_
*848 _0836_
*849 _0837_
*850 _0838_
*851 _0839_
*852 _0840_
*853 _0841_
*854 _0842_
*855 _0843_
*856 _0844_
*857 _0845_
*858 _0846_
*859 _0847_
*860 _0848_
*861 _0849_
*862 _0850_
*863 _0851_
*864 _0852_
*865 _0853_
*866 _0854_
*867 _0855_
*868 _0856_
*869 _0857_
*870 _0858_
*871 _0859_
*872 _0860_
*873 _0861_
*874 _0862_
*875 _0863_
*876 _0864_
*877 _0865_
*878 _0866_
*879 _0867_
*880 _0868_
*881 _0869_
*882 _0870_
*883 _0871_
*884 _0872_
*885 _0873_
*886 _0874_
*887 _0875_
*888 _0876_
*889 _0877_
*890 _0878_
*891 _0879_
*892 _0880_
*893 _0881_
*894 _0882_
*895 _0883_
*896 _0884_
*897 _0885_
*898 _0886_
*899 _0887_
*900 _0888_
*901 _0889_
*902 _0890_
*903 _0891_
*904 _0892_
*905 _0893_
*906 _0894_
*907 _0895_
*908 _0896_
*909 _0897_
*910 _0898_
*911 _0899_
*912 _0900_
*913 _0901_
*914 _0902_
*915 _0903_
*916 _0904_
*917 _0905_
*918 _0906_
*919 _0907_
*920 _0908_
*921 _0909_
*922 _0910_
*923 _0911_
*924 _0912_
*925 _0913_
*926 _0914_
*927 _0915_
*928 _0916_
*929 _0917_
*930 _0918_
*931 _0919_
*932 _0920_
*933 _0921_
*934 _0922_
*935 _0923_
*936 _0924_
*937 _0925_
*938 _0926_
*939 _0927_
*940 _0928_
*941 _0929_
*942 _0930_
*943 _0931_
*944 _0932_
*945 _0933_
*946 _0934_
*947 _0935_
*948 _0936_
*949 _0937_
*950 _0938_
*951 _0939_
*952 _0940_
*953 _0941_
*954 _0942_
*955 _0943_
*956 _0944_
*957 _0945_
*958 _0946_
*959 _0947_
*960 _0948_
*961 _0949_
*962 _0950_
*963 _0951_
*964 _0952_
*965 _0953_
*966 _0954_
*967 _0955_
*968 _0956_
*969 _0957_
*970 _0958_
*971 _0959_
*972 _0960_
*973 _0961_
*974 _0962_
*975 _0963_
*976 _0964_
*977 _0965_
*978 _0966_
*979 _0967_
*980 _0968_
*981 _0969_
*982 _0970_
*983 _0971_
*984 _0972_
*985 _0973_
*986 _0974_
*987 _0975_
*988 _0976_
*989 _0977_
*990 _0978_
*991 _0979_
*992 _0980_
*993 _0981_
*994 _0982_
*995 _0983_
*996 _0984_
*997 _0985_
*998 _0986_
*999 _0987_
*1000 _0988_
*1001 _0989_
*1002 _0990_
*1003 _0991_
*1004 _0992_
*1005 _0993_
*1006 _0994_
*1007 _0995_
*1008 _0996_
*1009 _0997_
*1010 _0998_
*1011 _0999_
*1012 _1000_
*1013 _1001_
*1014 _1002_
*1015 _1003_
*1016 _1004_
*1017 _1005_
*1018 _1006_
*1019 _1007_
*1020 _1008_
*1021 _1009_
*1022 _1010_
*1023 _1011_
*1024 _1012_
*1025 _1013_
*1026 _1014_
*1027 _1015_
*1028 _1016_
*1029 _1017_
*1030 _1018_
*1031 _1019_
*1032 _1020_
*1033 _1021_
*1034 _1022_
*1035 _1023_
*1036 _1024_
*1037 _1025_
*1038 _1026_
*1039 _1027_
*1040 _1028_
*1041 _1029_
*1042 _1030_
*1043 _1031_
*1044 _1032_
*1045 _1033_
*1046 _1034_
*1047 _1035_
*1048 _1036_
*1049 _1037_
*1050 _1038_
*1051 _1039_
*1052 _1040_
*1053 _1041_
*1054 _1042_
*1055 _1043_
*1056 _1044_
*1057 _1045_
*1058 _1046_
*1059 _1047_
*1060 _1048_
*1061 _1049_
*1062 _1050_
*1063 _1051_
*1064 _1052_
*1065 _1053_
*1066 _1054_
*1067 _1055_
*1068 _1056_
*1069 _1057_
*1070 _1058_
*1071 _1059_
*1072 _1060_
*1073 _1061_
*1074 _1062_
*1075 _1063_
*1076 _1064_
*1077 _1065_
*1078 _1066_
*1079 _1067_
*1080 _1068_
*1081 _1069_
*1082 _1070_
*1083 _1071_
*1084 _1072_
*1085 _1073_
*1086 _1074_
*1087 _1075_
*1088 _1076_
*1089 _1077_
*1090 _1078_
*1091 _1079_
*1092 _1080_
*1093 _1081_
*1094 _1082_
*1095 _1083_
*1096 _1084_
*1097 _1085_
*1098 _1086_
*1099 _1087_
*1100 _1088_
*1101 _1089_
*1102 _1090_
*1103 _1091_
*1104 _1092_
*1105 _1093_
*1106 _1094_
*1107 _1095_
*1108 _1096_
*1109 _1097_
*1110 _1098_
*1111 _1099_
*1112 _1100_
*1113 _1101_
*1114 _1102_
*1115 _1103_
*1116 _1104_
*1117 _1105_
*1118 _1106_
*1119 _1107_
*1120 _1108_
*1121 _1109_
*1122 _1110_
*1123 _1111_
*1124 _1112_
*1125 _1113_
*1126 _1114_
*1127 _1115_
*1128 _1116_
*1129 _1117_
*1130 _1118_
*1131 _1119_
*1132 _1120_
*1133 _1121_
*1134 _1122_
*1135 _1123_
*1136 _1124_
*1137 _1125_
*1138 _1126_
*1139 _1127_
*1140 _1128_
*1141 _1129_
*1142 _1130_
*1143 _1131_
*1144 _1132_
*1145 _1133_
*1146 _1134_
*1147 _1135_
*1148 _1136_
*1149 _1137_
*1150 _1138_
*1151 _1139_
*1152 _1140_
*1153 _1141_
*1154 _1142_
*1155 _1143_
*1156 _1144_
*1157 _1145_
*1158 _1146_
*1159 _1147_
*1160 _1148_
*1161 _1149_
*1162 _1150_
*1163 _1151_
*1164 _1152_
*1165 _1153_
*1166 _1154_
*1167 _1155_
*1168 _1156_
*1169 _1157_
*1170 _1158_
*1171 _1159_
*1172 _1160_
*1173 _1161_
*1174 _1162_
*1175 _1163_
*1176 _1164_
*1177 _1165_
*1178 _1166_
*1179 _1167_
*1180 _1168_
*1181 _1169_
*1182 _1170_
*1183 _1171_
*1184 _1172_
*1185 _1173_
*1186 _1174_
*1187 _1175_
*1188 _1176_
*1189 _1177_
*1190 _1178_
*1191 _1179_
*1192 _1180_
*1193 _1181_
*1194 _1182_
*1195 _1183_
*1196 _1184_
*1197 _1185_
*1198 _1186_
*1199 _1187_
*1200 _1188_
*1201 _1189_
*1202 _1190_
*1203 _1191_
*1204 _1192_
*1205 _1193_
*1206 _1194_
*1207 _1195_
*1208 _1196_
*1209 _1197_
*1210 _1198_
*1211 _1199_
*1212 _1200_
*1213 _1201_
*1214 _1202_
*1215 _1203_
*1216 _1204_
*1217 _1205_
*1218 _1206_
*1219 _1207_
*1220 _1208_
*1221 _1209_
*1222 _1210_
*1223 _1211_
*1224 _1212_
*1225 _1213_
*1226 _1214_
*1227 _1215_
*1228 _1216_
*1229 _1217_
*1230 _1218_
*1231 _1219_
*1232 _1220_
*1233 _1221_
*1234 _1222_
*1235 _1223_
*1236 _1224_
*1237 _1225_
*1238 _1226_
*1239 _1227_
*1240 _1228_
*1241 _1229_
*1242 _1230_
*1243 _1231_
*1244 _1232_
*1245 _1233_
*1246 _1234_
*1247 _1235_
*1248 _1236_
*1249 _1237_
*1250 _1238_
*1251 _1239_
*1252 _1240_
*1253 _1241_
*1254 _1242_
*1255 _1243_
*1256 _1244_
*1257 _1245_
*1258 _1246_
*1259 _1247_
*1260 _1248_
*1261 _1249_
*1262 _1250_
*1263 _1251_
*1264 _1252_
*1265 _1253_
*1266 _1254_
*1267 _1255_
*1268 _1256_
*1269 _1257_
*1270 _1258_
*1271 _1259_
*1272 _1260_
*1273 _1261_
*1274 _1262_
*1275 _1263_
*1276 _1264_
*1277 _1265_
*1278 _1266_
*1279 _1267_
*1280 _1268_
*1281 _1269_
*1282 _1270_
*1283 _1271_
*1284 _1272_
*1285 _1273_
*1286 _1274_
*1287 _1275_
*1288 _1276_
*1289 _1277_
*1290 _1278_
*1291 _1279_
*1292 _1280_
*1293 _1281_
*1294 _1282_
*1295 _1283_
*1296 _1284_
*1297 _1285_
*1298 _1286_
*1299 _1287_
*1300 _1288_
*1301 _1289_
*1302 _1290_
*1303 _1291_
*1304 _1292_
*1305 _1293_
*1306 _1294_
*1307 _1295_
*1308 _1296_
*1309 _1297_
*1310 _1298_
*1311 _1299_
*1312 _1300_
*1313 _1301_
*1314 _1302_
*1315 _1303_
*1316 _1304_
*1317 _1305_
*1318 _1306_
*1319 _1307_
*1320 _1308_
*1321 _1309_
*1322 _1310_
*1323 _1311_
*1324 _1312_
*1325 _1313_
*1326 _1314_
*1327 _1315_
*1328 _1316_
*1329 _1317_
*1330 _1318_
*1331 _1319_
*1332 _1320_
*1333 _1321_
*1334 _1322_
*1335 _1323_
*1336 _1324_
*1337 _1325_
*1338 _1326_
*1339 _1327_
*1340 _1328_
*1341 _1329_
*1342 _1330_
*1343 _1331_
*1344 _1332_
*1345 _1333_
*1346 _1334_
*1347 _1335_
*1348 _1336_
*1349 _1337_
*1350 _1338_
*1351 _1339_
*1352 _1340_
*1353 _1341_
*1354 _1342_
*1355 _1343_
*1356 _1344_
*1357 _1345_
*1358 _1346_
*1359 _1347_
*1360 _1348_
*1361 _1349_
*1362 _1350_
*1363 _1351_
*1364 _1352_
*1365 _1353_
*1366 _1354_
*1367 _1355_
*1368 _1356_
*1369 _1357_
*1370 _1358_
*1371 _1359_
*1372 _1360_
*1373 _1361_
*1374 _1362_
*1375 _1363_
*1376 _1364_
*1377 _1365_
*1378 _1366_
*1379 _1367_
*1380 _1368_
*1381 _1369_
*1382 _1370_
*1383 _1371_
*1384 _1372_
*1385 _1373_
*1386 _1374_
*1387 _1375_
*1388 _1376_
*1389 _1377_
*1390 _1378_
*1391 _1379_
*1392 _1380_
*1393 _1381_
*1394 _1382_
*1395 _1383_
*1396 _1384_
*1397 _1385_
*1398 _1386_
*1399 _1387_
*1400 _1388_
*1401 _1389_
*1402 _1390_
*1403 _1391_
*1404 _1392_
*1405 _1393_
*1406 _1394_
*1407 _1395_
*1408 _1396_
*1409 _1397_
*1410 _1398_
*1411 _1399_
*1412 _1400_
*1413 _1401_
*1414 _1402_
*1415 _1403_
*1416 _1404_
*1417 _1405_
*1418 _1406_
*1419 _1407_
*1420 _1408_
*1421 _1409_
*1422 _1410_
*1423 _1411_
*1424 _1412_
*1425 _1413_
*1426 _1414_
*1427 _1415_
*1428 _1416_
*1429 _1417_
*1430 _1418_
*1431 _1419_
*1432 _1420_
*1433 _1421_
*1434 _1422_
*1435 _1423_
*1436 _1424_
*1437 _1425_
*1438 _1426_
*1439 _1427_
*1440 _1428_
*1441 _1429_
*1442 _1430_
*1443 _1431_
*1444 _1432_
*1445 _1433_
*1446 _1434_
*1447 _1435_
*1448 _1436_
*1449 _1437_
*1450 _1438_
*1451 _1439_
*1452 _1440_
*1453 _1441_
*1454 _1442_
*1455 _1443_
*1456 _1444_
*1457 _1445_
*1458 _1446_
*1459 _1447_
*1460 _1448_
*1461 _1449_
*1462 _1450_
*1463 _1451_
*1464 _1452_
*1465 _1453_
*1466 _1454_
*1467 _1455_
*1468 _1456_
*1469 _1457_
*1470 _1458_
*1471 _1459_
*1472 _1460_
*1473 _1461_
*1474 _1462_
*1475 _1463_
*1476 _1464_
*1477 _1465_
*1478 _1466_
*1479 _1467_
*1480 _1468_
*1481 _1469_
*1482 _1470_
*1483 _1471_
*1484 _1472_
*1485 _1473_
*1486 _1474_
*1487 _1475_
*1488 _1476_
*1489 _1477_
*1490 _1478_
*1491 _1479_
*1492 _1480_
*1493 _1481_
*1494 _1482_
*1495 _1483_
*1496 _1484_
*1497 _1485_
*1498 _1486_
*1499 _1487_
*1500 _1488_
*1501 _1489_
*1502 _1490_
*1503 _1491_
*1504 _1492_
*1505 _1493_
*1506 _1494_
*1507 _1495_
*1508 _1496_
*1509 _1497_
*1510 _1498_
*1511 _1499_
*1512 _1500_
*1513 _1501_
*1514 _1502_
*1515 _1503_
*1516 _1504_
*1517 _1505_
*1518 _1506_
*1519 _1507_
*1520 _1508_
*1521 _1509_
*1522 _1510_
*1523 _1511_
*1524 _1512_
*1525 _1513_
*1526 _1514_
*1527 _1515_
*1528 _1516_
*1529 _1517_
*1530 _1518_
*1531 _1519_
*1532 _1520_
*1533 _1521_
*1534 _1522_
*1535 _1523_
*1536 _1524_
*1537 _1525_
*1538 _1526_
*1539 _1527_
*1540 _1528_
*1541 _1529_
*1542 _1530_
*1543 _1531_
*1544 _1532_
*1545 _1533_
*1546 _1534_
*1547 _1535_
*1548 _1536_
*1549 _1537_
*1550 _1538_
*1551 _1539_
*1552 _1540_
*1553 _1541_
*1554 _1542_
*1555 _1543_
*1556 _1544_
*1557 _1545_
*1558 _1546_
*1559 _1547_
*1560 _1548_
*1561 _1549_
*1562 _1550_
*1563 _1551_
*1564 _1552_
*1565 _1553_
*1566 _1554_
*1567 _1555_
*1568 _1556_
*1569 _1557_
*1570 _1558_
*1571 _1559_
*1572 _1560_
*1573 _1561_
*1574 _1562_
*1575 _1563_
*1576 _1564_
*1577 _1565_
*1578 _1566_
*1579 _1567_
*1580 _1568_
*1581 _1569_
*1582 _1570_
*1583 _1571_
*1584 _1572_
*1585 _1573_
*1586 _1574_
*1587 _1575_
*1588 _1576_
*1589 _1577_
*1590 _1578_
*1591 _1579_
*1592 _1580_
*1593 _1581_
*1594 _1582_
*1595 _1583_
*1596 _1584_
*1597 _1585_
*1598 _1586_
*1599 _1587_
*1600 _1588_
*1601 _1589_
*1602 _1590_
*1603 _1591_
*1604 _1592_
*1605 _1593_
*1606 _1594_
*1607 _1595_
*1608 _1596_
*1609 _1597_
*1610 _1598_
*1611 _1599_
*1612 _1600_
*1613 _1601_
*1614 _1602_
*1615 _1603_
*1616 _1604_
*1617 _1605_
*1618 _1606_
*1619 _1607_
*1620 _1608_
*1621 _1609_
*1622 _1610_
*1623 _1611_
*1624 _1612_
*1625 _1613_
*1626 _1614_
*1627 _1615_
*1628 _1616_
*1629 _1617_
*1630 _1618_
*1631 _1619_
*1632 _1620_
*1633 _1621_
*1634 _1622_
*1635 _1623_
*1636 _1624_
*1637 _1625_
*1638 _1626_
*1639 _1627_
*1640 _1628_
*1641 _1629_
*1642 _1630_
*1643 _1631_
*1644 _1632_
*1645 _1633_
*1646 _1634_
*1647 _1635_
*1648 _1636_
*1649 _1637_
*1650 _1638_
*1651 _1639_
*1652 _1640_
*1653 _1641_
*1654 _1642_
*1655 _1643_
*1656 _1644_
*1657 _1645_
*1658 _1646_
*1659 _1647_
*1660 _1648_
*1661 _1649_
*1662 _1650_
*1663 _1651_
*1664 _1652_
*1665 _1653_
*1666 _1654_
*1667 _1655_
*1668 _1656_
*1669 _1657_
*1670 _1658_
*1671 _1659_
*1672 _1660_
*1673 _1661_
*1674 _1662_
*1675 _1663_
*1676 _1664_
*1677 _1665_
*1678 _1666_
*1679 _1667_
*1680 _1668_
*1681 _1669_
*1682 _1670_
*1683 _1671_
*1684 _1672_
*1685 _1673_
*1686 _1674_
*1687 _1675_
*1688 _1676_
*1689 _1677_
*1690 _1678_
*1691 _1679_
*1692 _1680_
*1693 _1681_
*1694 _1682_
*1695 _1683_
*1696 _1684_
*1697 _1685_
*1698 _1686_
*1699 _1687_
*1700 _1688_
*1701 _1689_
*1702 _1690_
*1703 _1691_
*1704 _1692_
*1705 _1693_
*1706 _1694_
*1707 _1695_
*1708 _1696_
*1709 _1697_
*1710 _1698_
*1711 _1699_
*1712 _1700_
*1713 _1701_
*1714 _1702_
*1715 _1703_
*1716 _1704_
*1717 _1705_
*1718 _1706_
*1719 _1707_
*1720 _1708_
*1721 _1709_
*1722 _1710_
*1723 _1711_
*1724 _1712_
*1725 _1713_
*1726 _1714_
*1727 _1715_
*1728 _1716_
*1729 _1717_
*1730 _1718_
*1731 _1719_
*1732 _1720_
*1733 _1721_
*1734 _1722_
*1735 _1723_
*1736 _1724_
*1737 _1725_
*1738 _1726_
*1739 _1727_
*1740 _1728_
*1741 _1729_
*1742 _1730_
*1743 _1731_
*1744 _1732_
*1745 _1733_
*1746 _1734_
*1747 _1735_
*1748 _1736_
*1749 _1737_
*1750 _1738_
*1751 _1739_
*1752 _1740_
*1753 _1741_
*1754 _1742_
*1755 _1743_
*1756 _1744_
*1757 _1745_
*1758 _1746_
*1759 _1747_
*1760 _1748_
*1761 _1749_
*1762 _1750_
*1763 _1751_
*1764 _1752_
*1765 _1753_
*1766 _1754_
*1767 _1755_
*1768 _1756_
*1769 _1757_
*1770 _1758_
*1771 _1759_
*1772 _1760_
*1773 _1761_
*1774 _1762_
*1775 _1763_
*1776 _1764_
*1777 _1765_
*1778 _1766_
*1779 _1767_
*1780 _1768_
*1781 _1769_
*1782 _1770_
*1783 _1771_
*1784 _1772_
*1785 _1773_
*1786 _1774_
*1787 _1775_
*1788 _1776_
*1789 _1777_
*1790 _1778_
*1791 _1779_
*1792 _1780_
*1793 _1781_
*1794 _1782_
*1795 _1783_
*1796 _1784_
*1797 _1785_
*1798 _1786_
*1799 _1787_
*1800 _1788_
*1801 _1789_
*1802 _1790_
*1803 _1791_
*1804 _1792_
*1805 _1793_
*1806 _1794_
*1807 _1795_
*1808 _1796_
*1809 _1797_
*1810 _1798_
*1811 _1799_
*1812 _1800_
*1813 _1801_
*1814 _1802_
*1815 _1803_
*1816 _1804_
*1817 _1805_
*1818 _1806_
*1819 _1807_
*1820 _1808_
*1821 _1809_
*1822 _1810_
*1823 _1811_
*1824 _1812_
*1825 _1813_
*1826 _1814_
*1827 _1815_
*1828 _1816_
*1829 _1817_
*1830 _1818_
*1831 _1819_
*1832 _1820_
*1833 _1821_
*1834 _1822_
*1835 _1823_
*1836 _1824_
*1837 _1825_
*1838 _1826_
*1839 _1827_
*1840 _1828_
*1841 _1829_
*1842 _1830_
*1843 _1831_
*1844 _1832_
*1845 _1833_
*1846 _1834_
*1847 _1835_
*1848 _1836_
*1849 _1837_
*1850 _1838_
*1851 _1839_
*1852 _1840_
*1853 _1841_
*1854 _1842_
*1855 _1843_
*1856 _1844_
*1857 _1845_
*1858 _1846_
*1859 _1847_
*1860 _1848_
*1861 _1849_
*1862 _1850_
*1863 _1851_
*1864 _1852_
*1865 _1853_
*1866 _1854_
*1867 _1855_
*1868 _1856_
*1869 _1857_
*1870 _1858_
*1871 _1859_
*1872 _1860_
*1873 _1861_
*1874 _1862_
*1875 _1863_
*1876 _1864_
*1877 _1865_
*1878 _1866_
*1879 _1867_
*1880 _1868_
*1881 _1869_
*1882 _1870_
*1883 _1871_
*1884 _1872_
*1885 _1873_
*1886 _1874_
*1887 _1875_
*1888 _1876_
*1889 _1877_
*1890 _1878_
*1891 _1879_
*1892 _1880_
*1893 _1881_
*1894 _1882_
*1895 _1883_
*1896 _1884_
*1897 _1885_
*1898 _1886_
*1899 _1887_
*1900 _1888_
*1901 _1889_
*1902 _1890_
*1903 _1891_
*1904 _1892_
*1905 _1893_
*1906 _1894_
*1907 _1895_
*1908 _1896_
*1909 _1897_
*1910 _1898_
*1911 _1899_
*1912 _1900_
*1913 _1901_
*1914 _1902_
*1915 _1903_
*1916 _1904_
*1917 _1905_
*1918 _1906_
*1919 _1907_
*1920 _1908_
*1921 _1909_
*1922 _1910_
*1923 _1911_
*1924 _1912_
*1925 _1913_
*1926 _1914_
*1927 _1915_
*1928 _1916_
*1929 _1917_
*1930 _1918_
*1931 _1919_
*1932 _1920_
*1933 _1921_
*1934 _1922_
*1935 _1923_
*1936 _1924_
*1937 _1925_
*1938 _1926_
*1939 _1927_
*1940 _1928_
*1941 _1929_
*1942 _1930_
*1943 _1931_
*1944 _1932_
*1945 _1933_
*1946 _1934_
*1947 _1935_
*1948 _1936_
*1949 _1937_
*1950 _1938_
*1951 _1939_
*1952 _1940_
*1953 _1941_
*1954 _1942_
*1955 _1943_
*1956 _1944_
*1957 _1945_
*1958 _1946_
*1959 _1947_
*1960 _1948_
*1961 _1949_
*1962 _1950_
*1963 _1951_
*1964 _1952_
*1965 _1953_
*1966 _1954_
*1967 _1955_
*1968 _1956_
*1969 _1957_
*1970 _1958_
*1971 _1959_
*1972 _1960_
*1973 _1961_
*1974 _1962_
*1975 _1963_
*1976 _1964_
*1977 _1965_
*1978 _1966_
*1979 _1967_
*1980 _1968_
*1981 _1969_
*1982 _1970_
*1983 _1971_
*1984 _1972_
*1985 _1973_
*1986 _1974_
*1987 _1975_
*1988 _1976_
*1989 _1977_
*1990 _1978_
*1991 _1979_
*1992 _1980_
*1993 _1981_
*1994 _1982_
*1995 _1983_
*1996 _1984_
*1997 _1985_
*1998 _1986_
*1999 _1987_
*2000 _1988_
*2001 _1989_
*2002 _1990_
*2003 _1991_
*2004 _1992_
*2005 _1993_
*2006 _1994_
*2007 _1995_
*2008 _1996_
*2009 _1997_
*2010 _1998_
*2011 _1999_
*2012 _2000_
*2013 _2001_
*2014 _2002_
*2015 _2003_
*2016 _2004_
*2017 _2005_
*2018 _2006_
*2019 _2007_
*2020 _2008_
*2021 _2009_
*2022 _2010_
*2023 _2011_
*2024 _2012_
*2025 _2013_
*2026 _2014_
*2027 _2015_
*2028 _2016_
*2029 _2017_
*2030 _2018_
*2031 _2019_
*2032 _2020_
*2033 _2021_
*2034 _2022_
*2035 _2023_
*2036 _2024_
*2037 _2025_
*2038 _2026_
*2039 _2027_
*2040 _2028_
*2041 _2029_
*2042 _2030_
*2043 _2031_
*2044 _2032_
*2045 _2033_
*2046 _2034_
*2047 _2035_
*2048 _2036_
*2049 _2037_
*2050 _2038_
*2051 _2039_
*2052 _2040_
*2053 _2041_
*2054 _2042_
*2055 _2043_
*2056 _2044_
*2057 _2045_
*2058 _2046_
*2059 _2047_
*2060 _2048_
*2061 _2049_
*2062 _2050_
*2063 _2051_
*2064 _2052_
*2065 _2053_
*2066 _2054_
*2067 _2055_
*2068 _2056_
*2069 _2057_
*2070 _2058_
*2071 _2059_
*2072 _2060_
*2073 _2061_
*2074 _2062_
*2075 _2063_
*2076 _2064_
*2077 _2065_
*2078 _2066_
*2079 _2067_
*2080 _2068_
*2081 _2069_
*2082 _2070_
*2083 _2071_
*2084 _2072_
*2085 _2073_
*2086 _2074_
*2087 _2075_
*2088 _2076_
*2089 _2077_
*2090 _2078_
*2091 _2079_
*2092 _2080_
*2093 _2081_
*2094 _2082_
*2095 _2083_
*2096 _2084_
*2097 _2085_
*2098 _2086_
*2099 _2087_
*2100 _2088_
*2101 _2089_
*2102 _2090_
*2103 _2091_
*2104 _2092_
*2105 _2093_
*2106 _2094_
*2107 _2095_
*2108 _2096_
*2109 _2097_
*2110 _2098_
*2111 _2099_
*2112 _2100_
*2113 _2101_
*2114 _2102_
*2115 _2103_
*2116 _2104_
*2117 _2105_
*2118 _2106_
*2119 _2107_
*2120 _2108_
*2121 _2109_
*2122 _2110_
*2123 _2111_
*2124 _2112_
*2125 _2113_
*2126 _2114_
*2127 _2115_
*2128 _2116_
*2129 _2117_
*2130 _2118_
*2131 _2119_
*2132 _2120_
*2133 _2121_
*2134 _2122_
*2135 _2123_
*2136 _2124_
*2137 _2125_
*2138 _2126_
*2139 _2127_
*2140 _2128_
*2141 _2129_
*2142 _2130_
*2143 _2131_
*2144 _2132_
*2145 _2133_
*2146 _2134_
*2147 _2135_
*2148 _2136_
*2149 _2137_
*2150 _2138_
*2151 _2139_
*2152 _2140_
*2153 _2141_
*2154 _2142_
*2155 _2143_
*2156 _2144_
*2157 _2145_
*2158 _2146_
*2159 _2147_
*2160 _2148_
*2161 _2149_
*2162 _2150_
*2163 _2151_
*2164 _2152_
*2165 _2153_
*2166 _2154_
*2167 _2155_
*2168 _2156_
*2169 _2157_
*2170 _2158_
*2171 _2159_
*2172 _2160_
*2173 _2161_
*2174 _2162_
*2175 _2163_
*2176 _2164_
*2177 _2165_
*2178 _2166_
*2179 _2167_
*2180 _2168_
*2181 _2169_
*2182 _2170_
*2183 _2171_
*2184 _2172_
*2185 _2173_
*2186 _2174_
*2187 _2175_
*2188 _2176_
*2189 _2177_
*2190 _2178_
*2191 _2179_
*2192 _2180_
*2193 _2181_
*2194 _2182_
*2195 _2183_
*2196 _2184_
*2197 _2185_
*2198 _2186_
*2199 _2187_
*2200 _2188_
*2201 _2189_
*2202 _2190_
*2203 _2191_
*2204 _2192_
*2205 _2193_
*2206 _2194_
*2207 _2195_
*2208 _2196_
*2209 _2197_
*2210 _2198_
*2211 _2199_
*2212 _2200_
*2213 _2201_
*2214 _2202_
*2215 _2203_
*2216 _2204_
*2217 _2205_
*2218 _2206_
*2219 _2207_
*2220 _2208_
*2221 _2209_
*2222 _2210_
*2223 _2211_
*2224 _2212_
*2225 _2213_
*2226 _2214_
*2227 _2215_
*2228 _2216_
*2229 _2217_
*2230 _2218_
*2231 _2219_
*2232 _2220_
*2233 _2221_
*2234 _2222_
*2235 _2223_
*2236 _2224_
*2237 _2225_
*2238 _2226_
*2239 _2227_
*2240 _2228_
*2241 _2229_
*2242 _2230_
*2243 _2231_
*2244 _2232_
*2245 _2233_
*2246 _2234_
*2247 _2235_
*2248 _2236_
*2249 _2237_
*2250 _2238_
*2251 _2239_
*2252 _2240_
*2253 _2241_
*2254 _2242_
*2255 _2243_
*2256 _2244_
*2257 _2245_
*2258 _2246_
*2259 _2247_
*2260 _2248_
*2261 _2249_
*2262 _2250_
*2263 _2251_
*2264 _2252_
*2265 _2253_
*2266 _2254_
*2267 _2255_
*2268 _2256_
*2269 _2257_
*2270 _2258_
*2271 _2259_
*2272 _2260_
*2273 _2261_
*2274 _2262_
*2275 _2263_
*2276 _2264_
*2277 _2265_
*2278 _2266_
*2279 _2267_
*2280 _2268_
*2281 _2269_
*2282 _2270_
*2283 _2271_
*2284 _2272_
*2285 _2273_
*2286 _2274_
*2287 _2275_
*2288 _2276_
*2289 _2277_
*2290 _2278_
*2291 _2279_
*2292 _2280_
*2293 _2281_
*2294 _2282_
*2295 _2283_
*2296 _2284_
*2297 _2285_
*2298 _2286_
*2299 _2287_
*2300 _2288_
*2301 _2289_
*2302 _2290_
*2303 _2291_
*2304 _2292_
*2305 _2293_
*2306 _2294_
*2307 _2295_
*2308 _2296_
*2309 _2297_
*2310 _2298_
*2311 _2299_
*2312 _2300_
*2313 _2301_
*2314 _2302_
*2315 _2303_
*2316 _2304_
*2317 _2305_
*2318 _2306_
*2319 _2307_
*2320 _2308_
*2321 _2309_
*2322 _2310_
*2323 _2311_
*2324 _2312_
*2325 _2313_
*2326 _2314_
*2327 _2315_
*2328 _2316_
*2329 _2317_
*2330 _2318_
*2331 _2319_
*2332 _2320_
*2333 _2321_
*2334 _2322_
*2335 _2323_
*2336 _2324_
*2337 _2325_
*2338 _2326_
*2339 _2327_
*2340 _2328_
*2341 _2329_
*2342 _2330_
*2343 _2331_
*2344 _2332_
*2345 _2333_
*2346 _2334_
*2347 _2335_
*2348 _2336_
*2349 _2337_
*2350 _2338_
*2351 _2339_
*2352 _2340_
*2353 _2341_
*2354 _2342_
*2355 _2343_
*2356 _2344_
*2357 _2345_
*2358 _2346_
*2359 _2347_
*2360 _2348_
*2361 _2349_
*2362 _2350_
*2363 _2351_
*2364 _2352_
*2365 _2353_
*2366 _2354_
*2367 _2355_
*2368 _2356_
*2369 _2357_
*2370 _2358_
*2371 _2359_