*SPEF "ieee 1481-1999"
*DESIGN "tholin_avalonsemi_tbb1143"
*DATE "11:11:11 Fri 11 11, 1111"
*VENDOR "OpenRCX"
*PROGRAM "Parallel Extraction"
*VERSION "1.0"
*DESIGN_FLOW "NAME_SCOPE LOCAL" "PIN_CAP NONE"
*DIVIDER /
*DELIMITER :
*BUS_DELIMITER []
*T_UNIT 1 NS
*C_UNIT 1 PF
*R_UNIT 1 OHM
*L_UNIT 1 HENRY

*NAME_MAP
*1 clk
*2 io_in[0]
*3 io_in[1]
*4 io_in[2]
*5 io_in[3]
*6 io_in[4]
*7 io_in[5]
*8 io_out[0]
*9 io_out[1]
*10 io_out[2]
*11 io_out[3]
*12 io_out[4]
*13 io_out[5]
*14 io_out[6]
*15 io_out[7]
*16 rst
*19 CIRCUIT_2223\.CLK
*20 CIRCUIT_2223\.GATES_1\.input1\[0\]
*21 CIRCUIT_2223\.GATES_1\.input1\[1\]
*22 CIRCUIT_2223\.GATES_1\.input1\[2\]
*23 CIRCUIT_2223\.GATES_1\.input1\[3\]
*24 CIRCUIT_2223\.GATES_11\.input2
*25 CIRCUIT_2223\.GATES_2\.input2
*26 CIRCUIT_2223\.GATES_3\.input2
*27 CIRCUIT_2223\.GATES_4\.input1\[0\]
*28 CIRCUIT_2223\.GATES_4\.input1\[1\]
*29 CIRCUIT_2223\.GATES_4\.input1\[2\]
*30 CIRCUIT_2223\.GATES_4\.input1\[3\]
*31 CIRCUIT_2223\.GATES_5\.input2
*32 CIRCUIT_2223\.MEMORY_18\.clock
*33 CIRCUIT_2223\.MEMORY_18\.d
*34 CIRCUIT_2223\.MEMORY_18\.s_currentState
*35 CIRCUIT_2223\.MEMORY_19\.d
*36 CIRCUIT_2223\.MEMORY_19\.s_currentState
*37 CIRCUIT_2223\.MEMORY_20\.d
*38 CIRCUIT_2223\.MEMORY_20\.s_currentState
*39 CIRCUIT_2223\.MEMORY_21\.d
*40 CIRCUIT_2223\.MEMORY_21\.s_currentState
*41 CIRCUIT_2223\.MEMORY_22\.d
*42 CIRCUIT_2223\.MEMORY_22\.s_currentState
*43 CIRCUIT_2223\.MEMORY_23\.s_currentState
*44 CIRCUIT_2223\.MEMORY_24\.d
*45 CIRCUIT_2223\.MEMORY_24\.s_currentState
*46 CIRCUIT_2223\.MEMORY_25\.d
*47 CIRCUIT_2223\.MEMORY_25\.s_currentState
*48 CIRCUIT_2223\.MEMORY_26\.s_currentState
*49 CIRCUIT_2223\.s_logisimNet48
*50 CIRCUIT_2223\.tone_generator_1\.GATES_1\.result
*51 CIRCUIT_2223\.tone_generator_1\.GATES_2\.result
*52 CIRCUIT_2223\.tone_generator_1\.GATES_3\.result
*53 CIRCUIT_2223\.tone_generator_1\.MEMORY_10\.s_currentState
*54 CIRCUIT_2223\.tone_generator_1\.MEMORY_11\.s_currentState
*55 CIRCUIT_2223\.tone_generator_1\.MEMORY_12\.s_currentState
*56 CIRCUIT_2223\.tone_generator_1\.MEMORY_13\.s_currentState
*57 CIRCUIT_2223\.tone_generator_1\.MEMORY_14\.s_currentState
*58 CIRCUIT_2223\.tone_generator_1\.MEMORY_15\.s_currentState
*59 CIRCUIT_2223\.tone_generator_1\.MEMORY_16\.s_currentState
*60 CIRCUIT_2223\.tone_generator_1\.MEMORY_17\.s_currentState
*61 CIRCUIT_2223\.tone_generator_1\.MEMORY_18\.s_currentState
*62 CIRCUIT_2223\.tone_generator_1\.MEMORY_19\.s_currentState
*63 CIRCUIT_2223\.tone_generator_1\.MEMORY_20\.s_currentState
*64 CIRCUIT_2223\.tone_generator_1\.MEMORY_4\.s_currentState
*65 CIRCUIT_2223\.tone_generator_1\.MEMORY_6\.s_currentState
*66 CIRCUIT_2223\.tone_generator_1\.MEMORY_7\.s_currentState
*67 CIRCUIT_2223\.tone_generator_1\.MEMORY_8\.s_currentState
*68 CIRCUIT_2223\.tone_generator_1\.MEMORY_9\.s_currentState
*69 CIRCUIT_2223\.tone_generator_1\.tone_generator_2_1\.GATES_10\.input2
*70 CIRCUIT_2223\.tone_generator_1\.tone_generator_2_1\.GATES_11\.input2
*71 CIRCUIT_2223\.tone_generator_1\.tone_generator_2_1\.GATES_12\.input2
*72 CIRCUIT_2223\.tone_generator_1\.tone_generator_2_1\.GATES_13\.input2
*73 CIRCUIT_2223\.tone_generator_1\.tone_generator_2_1\.GATES_14\.input2
*74 CIRCUIT_2223\.tone_generator_1\.tone_generator_2_1\.GATES_15\.input2
*75 CIRCUIT_2223\.tone_generator_1\.tone_generator_2_1\.GATES_16\.input2
*76 CIRCUIT_2223\.tone_generator_1\.tone_generator_2_1\.GATES_17\.input2
*77 CIRCUIT_2223\.tone_generator_1\.tone_generator_2_1\.GATES_27\.result
*78 CIRCUIT_2223\.tone_generator_1\.tone_generator_2_1\.GATES_7\.input2
*79 CIRCUIT_2223\.tone_generator_1\.tone_generator_2_1\.GATES_8\.input2
*80 CIRCUIT_2223\.tone_generator_1\.tone_generator_2_1\.GATES_9\.input2
*81 CIRCUIT_2223\.tone_generator_1\.tone_generator_2_1\.MEMORY_28\.clock
*82 CIRCUIT_2223\.tone_generator_1\.tone_generator_2_1\.MEMORY_28\.d
*83 CIRCUIT_2223\.tone_generator_1\.tone_generator_2_1\.MEMORY_28\.s_currentState
*84 CIRCUIT_2223\.tone_generator_1\.tone_generator_2_1\.MEMORY_29\.d
*85 CIRCUIT_2223\.tone_generator_1\.tone_generator_2_1\.MEMORY_29\.s_currentState
*86 CIRCUIT_2223\.tone_generator_1\.tone_generator_2_1\.MEMORY_30\.d
*87 CIRCUIT_2223\.tone_generator_1\.tone_generator_2_1\.MEMORY_30\.s_currentState
*88 CIRCUIT_2223\.tone_generator_1\.tone_generator_2_1\.MEMORY_31\.d
*89 CIRCUIT_2223\.tone_generator_1\.tone_generator_2_1\.MEMORY_31\.s_currentState
*90 CIRCUIT_2223\.tone_generator_1\.tone_generator_2_1\.MEMORY_32\.d
*91 CIRCUIT_2223\.tone_generator_1\.tone_generator_2_1\.MEMORY_32\.s_currentState
*92 CIRCUIT_2223\.tone_generator_1\.tone_generator_2_1\.MEMORY_33\.d
*93 CIRCUIT_2223\.tone_generator_1\.tone_generator_2_1\.MEMORY_33\.s_currentState
*94 CIRCUIT_2223\.tone_generator_1\.tone_generator_2_1\.MEMORY_34\.d
*95 CIRCUIT_2223\.tone_generator_1\.tone_generator_2_1\.MEMORY_34\.s_currentState
*96 CIRCUIT_2223\.tone_generator_1\.tone_generator_2_1\.MEMORY_35\.d
*97 CIRCUIT_2223\.tone_generator_1\.tone_generator_2_1\.MEMORY_35\.s_currentState
*98 CIRCUIT_2223\.tone_generator_1\.tone_generator_2_1\.MEMORY_36\.d
*99 CIRCUIT_2223\.tone_generator_1\.tone_generator_2_1\.MEMORY_36\.s_currentState
*100 CIRCUIT_2223\.tone_generator_1\.tone_generator_2_1\.MEMORY_37\.d
*101 CIRCUIT_2223\.tone_generator_1\.tone_generator_2_1\.MEMORY_37\.s_currentState
*102 CIRCUIT_2223\.tone_generator_1\.tone_generator_2_1\.MEMORY_38\.s_currentState
*103 CIRCUIT_2223\.tone_generator_1\.tone_generator_2_1\.MEMORY_39\.d
*104 CIRCUIT_2223\.tone_generator_1\.tone_generator_2_1\.MEMORY_39\.s_currentState
*105 CIRCUIT_2223\.tone_generator_2_1\.GATES_10\.input2
*106 CIRCUIT_2223\.tone_generator_2_1\.GATES_11\.input2
*107 CIRCUIT_2223\.tone_generator_2_1\.GATES_12\.input2
*108 CIRCUIT_2223\.tone_generator_2_1\.GATES_13\.input2
*109 CIRCUIT_2223\.tone_generator_2_1\.GATES_14\.input2
*110 CIRCUIT_2223\.tone_generator_2_1\.GATES_15\.input2
*111 CIRCUIT_2223\.tone_generator_2_1\.GATES_16\.input2
*112 CIRCUIT_2223\.tone_generator_2_1\.GATES_17\.input2
*113 CIRCUIT_2223\.tone_generator_2_1\.GATES_27\.result
*114 CIRCUIT_2223\.tone_generator_2_1\.GATES_7\.input2
*115 CIRCUIT_2223\.tone_generator_2_1\.GATES_8\.input2
*116 CIRCUIT_2223\.tone_generator_2_1\.GATES_9\.input2
*117 CIRCUIT_2223\.tone_generator_2_1\.MEMORY_28\.clock
*118 CIRCUIT_2223\.tone_generator_2_1\.MEMORY_28\.d
*119 CIRCUIT_2223\.tone_generator_2_1\.MEMORY_28\.s_currentState
*120 CIRCUIT_2223\.tone_generator_2_1\.MEMORY_29\.d
*121 CIRCUIT_2223\.tone_generator_2_1\.MEMORY_29\.s_currentState
*122 CIRCUIT_2223\.tone_generator_2_1\.MEMORY_30\.d
*123 CIRCUIT_2223\.tone_generator_2_1\.MEMORY_30\.s_currentState
*124 CIRCUIT_2223\.tone_generator_2_1\.MEMORY_31\.d
*125 CIRCUIT_2223\.tone_generator_2_1\.MEMORY_31\.s_currentState
*126 CIRCUIT_2223\.tone_generator_2_1\.MEMORY_32\.d
*127 CIRCUIT_2223\.tone_generator_2_1\.MEMORY_32\.s_currentState
*128 CIRCUIT_2223\.tone_generator_2_1\.MEMORY_33\.d
*129 CIRCUIT_2223\.tone_generator_2_1\.MEMORY_33\.s_currentState
*130 CIRCUIT_2223\.tone_generator_2_1\.MEMORY_34\.d
*131 CIRCUIT_2223\.tone_generator_2_1\.MEMORY_34\.s_currentState
*132 CIRCUIT_2223\.tone_generator_2_1\.MEMORY_35\.d
*133 CIRCUIT_2223\.tone_generator_2_1\.MEMORY_35\.s_currentState
*134 CIRCUIT_2223\.tone_generator_2_1\.MEMORY_36\.d
*135 CIRCUIT_2223\.tone_generator_2_1\.MEMORY_36\.s_currentState
*136 CIRCUIT_2223\.tone_generator_2_1\.MEMORY_37\.d
*137 CIRCUIT_2223\.tone_generator_2_1\.MEMORY_37\.s_currentState
*138 CIRCUIT_2223\.tone_generator_2_1\.MEMORY_38\.s_currentState
*139 CIRCUIT_2223\.tone_generator_2_1\.MEMORY_39\.d
*140 CIRCUIT_2223\.tone_generator_2_1\.MEMORY_39\.s_currentState
*141 CIRCUIT_2223\.tone_generator_2_2\.GATES_10\.input2
*142 CIRCUIT_2223\.tone_generator_2_2\.GATES_11\.input2
*143 CIRCUIT_2223\.tone_generator_2_2\.GATES_12\.input2
*144 CIRCUIT_2223\.tone_generator_2_2\.GATES_13\.input2
*145 CIRCUIT_2223\.tone_generator_2_2\.GATES_14\.input2
*146 CIRCUIT_2223\.tone_generator_2_2\.GATES_15\.input2
*147 CIRCUIT_2223\.tone_generator_2_2\.GATES_16\.input2
*148 CIRCUIT_2223\.tone_generator_2_2\.GATES_17\.input2
*149 CIRCUIT_2223\.tone_generator_2_2\.GATES_27\.result
*150 CIRCUIT_2223\.tone_generator_2_2\.GATES_7\.input2
*151 CIRCUIT_2223\.tone_generator_2_2\.GATES_8\.input2
*152 CIRCUIT_2223\.tone_generator_2_2\.GATES_9\.input2
*153 CIRCUIT_2223\.tone_generator_2_2\.MEMORY_28\.clock
*154 CIRCUIT_2223\.tone_generator_2_2\.MEMORY_28\.d
*155 CIRCUIT_2223\.tone_generator_2_2\.MEMORY_28\.s_currentState
*156 CIRCUIT_2223\.tone_generator_2_2\.MEMORY_29\.d
*157 CIRCUIT_2223\.tone_generator_2_2\.MEMORY_29\.s_currentState
*158 CIRCUIT_2223\.tone_generator_2_2\.MEMORY_30\.d
*159 CIRCUIT_2223\.tone_generator_2_2\.MEMORY_30\.s_currentState
*160 CIRCUIT_2223\.tone_generator_2_2\.MEMORY_31\.d
*161 CIRCUIT_2223\.tone_generator_2_2\.MEMORY_31\.s_currentState
*162 CIRCUIT_2223\.tone_generator_2_2\.MEMORY_32\.d
*163 CIRCUIT_2223\.tone_generator_2_2\.MEMORY_32\.s_currentState
*164 CIRCUIT_2223\.tone_generator_2_2\.MEMORY_33\.d
*165 CIRCUIT_2223\.tone_generator_2_2\.MEMORY_33\.s_currentState
*166 CIRCUIT_2223\.tone_generator_2_2\.MEMORY_34\.d
*167 CIRCUIT_2223\.tone_generator_2_2\.MEMORY_34\.s_currentState
*168 CIRCUIT_2223\.tone_generator_2_2\.MEMORY_35\.d
*169 CIRCUIT_2223\.tone_generator_2_2\.MEMORY_35\.s_currentState
*170 CIRCUIT_2223\.tone_generator_2_2\.MEMORY_36\.d
*171 CIRCUIT_2223\.tone_generator_2_2\.MEMORY_36\.s_currentState
*172 CIRCUIT_2223\.tone_generator_2_2\.MEMORY_37\.d
*173 CIRCUIT_2223\.tone_generator_2_2\.MEMORY_37\.s_currentState
*174 CIRCUIT_2223\.tone_generator_2_2\.MEMORY_38\.s_currentState
*175 CIRCUIT_2223\.tone_generator_2_2\.MEMORY_39\.d
*176 CIRCUIT_2223\.tone_generator_2_2\.MEMORY_39\.s_currentState
*177 CIRCUIT_2223\.triangle_wave_generator_1\.GATES_10\.input2
*178 CIRCUIT_2223\.triangle_wave_generator_1\.GATES_11\.input2
*179 CIRCUIT_2223\.triangle_wave_generator_1\.GATES_12\.input2
*180 CIRCUIT_2223\.triangle_wave_generator_1\.GATES_13\.input2
*181 CIRCUIT_2223\.triangle_wave_generator_1\.GATES_14\.input2
*182 CIRCUIT_2223\.triangle_wave_generator_1\.GATES_15\.input2
*183 CIRCUIT_2223\.triangle_wave_generator_1\.GATES_16\.input2
*184 CIRCUIT_2223\.triangle_wave_generator_1\.GATES_17\.input2
*185 CIRCUIT_2223\.triangle_wave_generator_1\.GATES_27\.result
*186 CIRCUIT_2223\.triangle_wave_generator_1\.GATES_7\.input2
*187 CIRCUIT_2223\.triangle_wave_generator_1\.GATES_8\.input2
*188 CIRCUIT_2223\.triangle_wave_generator_1\.GATES_9\.input2
*189 CIRCUIT_2223\.triangle_wave_generator_1\.MEMORY_28\.clock
*190 CIRCUIT_2223\.triangle_wave_generator_1\.MEMORY_28\.d
*191 CIRCUIT_2223\.triangle_wave_generator_1\.MEMORY_28\.s_currentState
*192 CIRCUIT_2223\.triangle_wave_generator_1\.MEMORY_29\.d
*193 CIRCUIT_2223\.triangle_wave_generator_1\.MEMORY_29\.s_currentState
*194 CIRCUIT_2223\.triangle_wave_generator_1\.MEMORY_30\.d
*195 CIRCUIT_2223\.triangle_wave_generator_1\.MEMORY_30\.s_currentState
*196 CIRCUIT_2223\.triangle_wave_generator_1\.MEMORY_31\.d
*197 CIRCUIT_2223\.triangle_wave_generator_1\.MEMORY_31\.s_currentState
*198 CIRCUIT_2223\.triangle_wave_generator_1\.MEMORY_32\.d
*199 CIRCUIT_2223\.triangle_wave_generator_1\.MEMORY_32\.s_currentState
*200 CIRCUIT_2223\.triangle_wave_generator_1\.MEMORY_33\.d
*201 CIRCUIT_2223\.triangle_wave_generator_1\.MEMORY_33\.s_currentState
*202 CIRCUIT_2223\.triangle_wave_generator_1\.MEMORY_34\.d
*203 CIRCUIT_2223\.triangle_wave_generator_1\.MEMORY_34\.s_currentState
*204 CIRCUIT_2223\.triangle_wave_generator_1\.MEMORY_35\.d
*205 CIRCUIT_2223\.triangle_wave_generator_1\.MEMORY_35\.s_currentState
*206 CIRCUIT_2223\.triangle_wave_generator_1\.MEMORY_36\.d
*207 CIRCUIT_2223\.triangle_wave_generator_1\.MEMORY_36\.s_currentState
*208 CIRCUIT_2223\.triangle_wave_generator_1\.MEMORY_37\.d
*209 CIRCUIT_2223\.triangle_wave_generator_1\.MEMORY_37\.s_currentState
*210 CIRCUIT_2223\.triangle_wave_generator_1\.MEMORY_38\.s_currentState
*211 CIRCUIT_2223\.triangle_wave_generator_1\.MEMORY_39\.d
*212 CIRCUIT_2223\.triangle_wave_generator_1\.MEMORY_39\.s_currentState
*213 CIRCUIT_2223\.triangle_wave_generator_1\.MEMORY_40\.clock
*214 CIRCUIT_2223\.triangle_wave_generator_1\.MEMORY_40\.d
*215 CIRCUIT_2223\.triangle_wave_generator_1\.MEMORY_40\.s_currentState
*216 CIRCUIT_2223\.triangle_wave_generator_1\.MEMORY_41\.clock
*217 CIRCUIT_2223\.triangle_wave_generator_1\.MEMORY_41\.s_currentState
*218 CIRCUIT_2223\.triangle_wave_generator_1\.MEMORY_42\.s_currentState
*219 _000_
*220 _001_
*221 _002_
*222 _003_
*223 _004_
*224 _005_
*225 _006_
*226 _007_
*227 _008_
*228 _009_
*229 _010_
*230 _011_
*231 _012_
*232 _013_
*233 _014_
*234 _015_
*235 _016_
*236 _017_
*237 _018_
*238 _019_
*239 _020_
*240 _021_
*241 _022_
*242 _023_
*243 _024_
*244 _025_
*245 _026_
*246 _027_
*247 _028_
*248 _029_
*249 _030_
*250 _031_
*251 _032_
*252 _033_
*253 _034_
*254 _035_
*255 _036_
*256 _037_
*257 _038_
*258 _039_
*259 _040_
*260 _041_
*261 _042_
*262 _043_
*263 _044_
*264 _045_
*265 _046_
*266 _047_
*267 _048_
*268 _049_
*269 _050_
*270 _051_
*271 _052_
*272 _053_
*273 _054_
*274 _055_
*275 _056_
*276 _057_
*277 _058_
*278 _059_
*279 _060_
*280 _061_
*281 _062_
*282 _063_
*283 _064_
*284 _065_
*285 _066_
*286 _067_
*287 _068_
*288 _069_
*289 _070_
*290 _071_
*291 _072_
*292 _073_
*293 _074_
*294 _075_
*295 _076_
*296 _077_
*297 _078_
*298 _079_
*299 _080_
*300 _081_
*301 _082_
*302 _083_
*303 _084_
*304 _085_
*305 _086_
*306 _087_
*307 _088_
*308 _089_
*309 _090_
*310 _091_
*311 _092_
*312 _093_
*313 _094_
*314 _095_
*315 _096_
*316 _097_
*317 _098_
*318 _099_
*319 _100_
*320 _101_
*321 _102_
*322 _103_
*323 _104_
*324 _105_
*325 _106_
*326 _107_
*327 _108_
*328 _109_
*329 _110_
*330 _111_
*331 _112_
*332 _113_
*333 _114_
*334 _115_
*335 _116_
*336 _117_
*337 _118_
*338 _119_
*339 _120_
*340 _121_
*341 _122_
*342 _123_
*343 _124_
*344 _125_
*345 _126_
*346 _127_
*347 _128_
*348 _129_
*349 _130_
*350 _131_
*351 _132_
*352 _133_
*353 _134_
*354 _135_
*355 _136_
*356 _137_
*357 _138_
*358 _139_
*359 _140_
*360 _141_
*361 _142_
*362 _143_
*363 _144_
*364 _145_
*365 _146_
*366 _147_
*367 _148_
*368 _149_
*369 _150_
*370 _151_
*371 _152_
*372 _153_
*373 _154_
*374 _155_
*375 _156_
*376 _157_
*377 _158_
*378 _159_
*379 _160_
*380 _161_
*381 _162_
*382 _163_
*383 _164_
*384 _165_
*385 _166_
*386 _167_
*387 _168_
*388 _169_
*389 _170_
*390 _171_
*391 _172_
*392 _173_
*393 _174_
*394 _175_
*395 _176_
*396 _177_
*397 _178_
*398 _179_
*399 _180_
*400 _181_
*401 _182_
*402 _183_
*403 _184_
*404 _185_
*405 _186_
*406 _187_
*407 _188_
*408 _189_
*409 _190_
*410 _191_
*411 _192_
*412 _193_
*413 _194_
*414 _195_
*415 _196_
*416 _197_
*417 _198_
*418 _199_
*419 _200_
*420 _201_
*421 _202_
*422 _203_
*423 _204_
*424 _205_
*425 _206_
*426 _207_
*427 _208_
*428 _209_
*429 _210_
*430 _211_
*431 _212_
*432 _213_
*433 _214_
*434 _215_
*435 _216_
*436 _217_
*437 _218_
*438 _219_
*439 _220_
*440 _221_
*441 _222_
*442 _223_
*443 _224_
*444 _225_
*445 _226_
*446 _227_
*447 _228_
*448 _229_
*449 _230_
*450 _231_
*451 _232_
*452 _233_
*453 _234_
*454 _235_
*455 _236_
*456 _237_
*457 _238_
*458 _239_
*459 _240_
*460 _241_
*461 _242_
*462 _243_
*463 _244_
*464 _245_
*465 _246_
*466 _247_
*467 _248_
*468 _249_
*469 _250_
*470 _251_
*471 _252_
*472 _253_
*473 _254_
*474 _255_
*475 _256_
*476 _257_
*477 _258_
*478 _259_
*479 _260_
*480 _261_
*481 _262_
*482 _263_
*483 _264_
*484 _265_
*485 _266_
*486 _267_
*487 _268_
*488 _269_
*489 _270_
*490 _271_
*491 _272_
*492 _273_
*493 _274_
*494 _275_
*495 _276_
*496 _277_
*497 _278_
*498 _279_
*499 _280_
*500 _281_
*501 _282_
*502 _283_
*503 _284_
*504 _285_
*505 _286_
*506 _287_
*507 _288_
*508 _289_
*509 _290_
*510 _291_
*511 _292_
*512 _293_
*513 _294_
*514 _295_
*515 _296_
*516 _297_
*517 _298_
*518 _299_
*519 _300_
*520 _301_
*521 _302_
*522 _303_
*523 _304_
*524 _305_
*525 _306_
*526 _307_
*527 _308_
*528 _309_
*529 _310_
*530 _311_
*531 _312_
*532 _313_
*533 _314_
*534 _315_
*535 _316_
*536 _317_
*537 _318_
*538 _319_
*539 _320_
*540 _321_
*541 _322_
*542 _323_
*543 _324_
*544 _325_
*545 _326_
*546 _327_
*547 _328_
*548 _329_
*549 _330_
*550 _331_
*551 _332_
*552 _333_
*553 _334_
*554 _335_
*555 _336_
*556 _337_
*557 _338_
*558 _339_
*559 _340_
*560 _341_
*561 _342_
*562 _343_
*563 _344_
*564 _345_
*565 _346_
*566 _347_
*567 _348_
*568 _349_
*569 _350_
*570 _351_
*571 _352_
*572 _353_
*573 _354_
*574 _355_
*575 _356_
*576 _357_
*577 _358_
*578 _359_
*579 _360_
*580 _361_
*581 _362_
*582 _363_
*583 _364_
*584 _365_
*585 _366_
*586 _367_
*587 _368_
*588 _369_
*589 _370_
*590 _371_
*591 _372_
*592 _373_
*593 _374_
*594 _375_
*595 _376_
*596 _377_
*597 _378_
*598 _379_
*599 clknet_0__195_
*600 clknet_0__212_
*601 clknet_0__213_
*602 clknet_0__235_
*603 clknet_0__236_
*604 clknet_0__262_
*605 clknet_0__263_
*606 clknet_0__281_
*607 clknet_0__282_
*608 clknet_0_clk
*609 clknet_1_0__leaf__195_
*610 clknet_1_0__leaf__212_
*611 clknet_1_0__leaf__213_
*612 clknet_1_0__leaf__235_
*613 clknet_1_0__leaf__236_
*614 clknet_1_0__leaf__262_
*615 clknet_1_0__leaf__263_
*616 clknet_1_0__leaf__281_
*617 clknet_1_0__leaf__282_
*618 clknet_1_0__leaf_clk
*619 clknet_1_1__leaf__195_
*620 clknet_1_1__leaf__212_
*621 clknet_1_1__leaf__213_
*622 clknet_1_1__leaf__235_
*623 clknet_1_1__leaf__236_
*624 clknet_1_1__leaf__262_
*625 clknet_1_1__leaf__263_
*626 clknet_1_1__leaf__281_
*627 clknet_1_1__leaf__282_
*628 clknet_1_1__leaf_clk
*629 net1
*630 net10
*631 net11
*632 net12
*633 net13
*634 net14
*635 net15
*636 net16
*637 net17
*638 net18
*639 net19
*640 net2
*641 net20
*642 net21
*643 net22
*644 net23
*645 net24
*646 net25
*647 net26
*648 net27
*649 net28
*650 net3
*651 net4
*652 net5
*653 net6
*654 net7
*655 net8
*656 net9
*657 slow_clock\[0\]
*658 slow_clock\[1\]
*659 slow_clock\[2\]
*660 slow_clock\[3\]
*661 slow_clock\[4\]
*662 slow_clock\[5\]
*663 slow_clock\[6\]
*664 ANTENNA__389__B
*665 ANTENNA__390__B
*666 ANTENNA__392__A0
*667 ANTENNA__394__A
*668 ANTENNA__395__A0
*669 ANTENNA__397__A
*670 ANTENNA__398__A0
*671 ANTENNA__400__A
*672 ANTENNA__401__A0
*673 ANTENNA__405__A
*674 ANTENNA__406__C1
*675 ANTENNA__407__C1
*676 ANTENNA__430__A
*677 ANTENNA__431__A
*678 ANTENNA__432__A
*679 ANTENNA__433__A
*680 ANTENNA__434__A
*681 ANTENNA__435__A
*682 ANTENNA__459__C
*683 ANTENNA__464__A
*684 ANTENNA__465__A
*685 ANTENNA__466__A
*686 ANTENNA__496__D
*687 ANTENNA__502__A
*688 ANTENNA__506__A
*689 ANTENNA__507__A
*690 ANTENNA__508__A
*691 ANTENNA__509__A
*692 ANTENNA__510__A
*693 ANTENNA__511__A
*694 ANTENNA__532__A
*695 ANTENNA__538__A
*696 ANTENNA__539__A
*697 ANTENNA__540__A
*698 ANTENNA__541__A
*699 ANTENNA__629__B
*700 ANTENNA__631__A0
*701 ANTENNA__633__A0
*702 ANTENNA__635__A0
*703 ANTENNA__638__B
*704 ANTENNA__639__B1
*705 ANTENNA__643__A
*706 ANTENNA__645__A
*707 ANTENNA__648__A
*708 ANTENNA__651__A
*709 ANTENNA__654__A
*710 ANTENNA__656__B1
*711 ANTENNA__659__B
*712 ANTENNA__660__B
*713 ANTENNA__662__B
*714 ANTENNA__663__B
*715 ANTENNA__664__B
*716 ANTENNA__665__B
*717 ANTENNA__666__B
*718 ANTENNA__667__B
*719 ANTENNA__669__A0
*720 ANTENNA__671__A0
*721 ANTENNA__673__A0
*722 ANTENNA__675__A0
*723 ANTENNA__677__D
*724 ANTENNA__679__A0
*725 ANTENNA__681__A0
*726 ANTENNA__683__A0
*727 ANTENNA__685__A0
*728 ANTENNA__687__A
*729 ANTENNA__688__A0
*730 ANTENNA__690__A0
*731 ANTENNA__692__A0
*732 ANTENNA__694__A0
*733 ANTENNA__702__A
*734 ANTENNA__711__A
*735 ANTENNA__722__A0
*736 ANTENNA__724__A0
*737 ANTENNA__726__A0
*738 ANTENNA__728__A0
*739 ANTENNA__730__A0
*740 ANTENNA__732__A0
*741 ANTENNA__734__A0
*742 ANTENNA__737__A0
*743 ANTENNA__739__A0
*744 ANTENNA__741__A0
*745 ANTENNA__743__A0
*746 ANTENNA__749__A
*747 ANTENNA__757__A0
*748 ANTENNA__759__A0
*749 ANTENNA__761__A0
*750 ANTENNA__764__A0
*751 ANTENNA__766__A0
*752 ANTENNA__768__A0
*753 ANTENNA__770__A0
*754 ANTENNA__773__A0
*755 ANTENNA__775__A0
*756 ANTENNA__777__A0
*757 ANTENNA__779__A0
*758 ANTENNA__785__A
*759 ANTENNA__793__A0
*760 ANTENNA__795__A0
*761 ANTENNA__797__A0
*762 ANTENNA__800__A0
*763 ANTENNA__802__A0
*764 ANTENNA__804__A0
*765 ANTENNA__806__A0
*766 ANTENNA__809__A0
*767 ANTENNA__811__A0
*768 ANTENNA__813__A0
*769 ANTENNA__815__A0
*770 ANTENNA__821__B
*771 ANTENNA__822__B
*772 ANTENNA__823__B
*773 ANTENNA__824__B
*774 ANTENNA__856__SET_B
*775 ANTENNA__953__CLK
*776 ANTENNA__955__CLK
*777 ANTENNA__956__CLK
*778 ANTENNA__961__D
*779 ANTENNA__962__D
*780 ANTENNA_clkbuf_0_clk_A
*781 ANTENNA_fanout18_A
*782 ANTENNA_fanout19_A
*783 ANTENNA_fanout20_A
*784 ANTENNA_fanout23_A
*785 ANTENNA_fanout24_A
*786 ANTENNA_fanout25_A
*787 ANTENNA_hold1_A
*788 ANTENNA_input1_A
*789 ANTENNA_input2_A
*790 ANTENNA_input3_A
*791 ANTENNA_input4_A
*792 ANTENNA_input5_A
*793 ANTENNA_input6_A
*794 ANTENNA_input7_A
*795 FILLER_0_109
*796 FILLER_0_113
*797 FILLER_0_125
*798 FILLER_0_13
*799 FILLER_0_137
*800 FILLER_0_141
*801 FILLER_0_153
*802 FILLER_0_165
*803 FILLER_0_169
*804 FILLER_0_181
*805 FILLER_0_19
*806 FILLER_0_193
*807 FILLER_0_197
*808 FILLER_0_209
*809 FILLER_0_221
*810 FILLER_0_225
*811 FILLER_0_237
*812 FILLER_0_249
*813 FILLER_0_25
*814 FILLER_0_253
*815 FILLER_0_265
*816 FILLER_0_277
*817 FILLER_0_281
*818 FILLER_0_287
*819 FILLER_0_29
*820 FILLER_0_3
*821 FILLER_0_33
*822 FILLER_0_39
*823 FILLER_0_45
*824 FILLER_0_51
*825 FILLER_0_55
*826 FILLER_0_57
*827 FILLER_0_69
*828 FILLER_0_7
*829 FILLER_0_81
*830 FILLER_0_85
*831 FILLER_0_97
*832 FILLER_10_121
*833 FILLER_10_134
*834 FILLER_10_141
*835 FILLER_10_150
*836 FILLER_10_162
*837 FILLER_10_168
*838 FILLER_10_177
*839 FILLER_10_190
*840 FILLER_10_197
*841 FILLER_10_201
*842 FILLER_10_205
*843 FILLER_10_210
*844 FILLER_10_234
*845 FILLER_10_245
*846 FILLER_10_25
*847 FILLER_10_251
*848 FILLER_10_253
*849 FILLER_10_268
*850 FILLER_10_274
*851 FILLER_10_286
*852 FILLER_10_29
*853 FILLER_10_3
*854 FILLER_10_36
*855 FILLER_10_48
*856 FILLER_10_56
*857 FILLER_10_60
*858 FILLER_10_81
*859 FILLER_10_85
*860 FILLER_10_89
*861 FILLER_10_97
*862 FILLER_11_103
*863 FILLER_11_110
*864 FILLER_11_113
*865 FILLER_11_119
*866 FILLER_11_125
*867 FILLER_11_13
*868 FILLER_11_149
*869 FILLER_11_157
*870 FILLER_11_164
*871 FILLER_11_169
*872 FILLER_11_173
*873 FILLER_11_181
*874 FILLER_11_185
*875 FILLER_11_198
*876 FILLER_11_222
*877 FILLER_11_225
*878 FILLER_11_23
*879 FILLER_11_234
*880 FILLER_11_240
*881 FILLER_11_261
*882 FILLER_11_269
*883 FILLER_11_277
*884 FILLER_11_281
*885 FILLER_11_287
*886 FILLER_11_3
*887 FILLER_11_31
*888 FILLER_11_39
*889 FILLER_11_44
*890 FILLER_11_52
*891 FILLER_11_57
*892 FILLER_11_72
*893 FILLER_11_79
*894 FILLER_12_103
*895 FILLER_12_107
*896 FILLER_12_115
*897 FILLER_12_135
*898 FILLER_12_139
*899 FILLER_12_141
*900 FILLER_12_145
*901 FILLER_12_149
*902 FILLER_12_169
*903 FILLER_12_180
*904 FILLER_12_194
*905 FILLER_12_197
*906 FILLER_12_215
*907 FILLER_12_232
*908 FILLER_12_24
*909 FILLER_12_243
*910 FILLER_12_249
*911 FILLER_12_253
*912 FILLER_12_268
*913 FILLER_12_274
*914 FILLER_12_286
*915 FILLER_12_29
*916 FILLER_12_3
*917 FILLER_12_36
*918 FILLER_12_44
*919 FILLER_12_68
*920 FILLER_12_7
*921 FILLER_12_74
*922 FILLER_12_82
*923 FILLER_12_85
*924 FILLER_13_105
*925 FILLER_13_111
*926 FILLER_13_113
*927 FILLER_13_118
*928 FILLER_13_131
*929 FILLER_13_138
*930 FILLER_13_146
*931 FILLER_13_166
*932 FILLER_13_169
*933 FILLER_13_180
*934 FILLER_13_192
*935 FILLER_13_212
*936 FILLER_13_219
*937 FILLER_13_223
*938 FILLER_13_225
*939 FILLER_13_234
*940 FILLER_13_242
*941 FILLER_13_26
*942 FILLER_13_266
*943 FILLER_13_278
*944 FILLER_13_281
*945 FILLER_13_287
*946 FILLER_13_3
*947 FILLER_13_30
*948 FILLER_13_35
*949 FILLER_13_50
*950 FILLER_13_57
*951 FILLER_13_72
*952 FILLER_13_80
*953 FILLER_13_9
*954 FILLER_14_100
*955 FILLER_14_108
*956 FILLER_14_11
*957 FILLER_14_114
*958 FILLER_14_122
*959 FILLER_14_132
*960 FILLER_14_138
*961 FILLER_14_141
*962 FILLER_14_145
*963 FILLER_14_153
*964 FILLER_14_166
*965 FILLER_14_173
*966 FILLER_14_193
*967 FILLER_14_197
*968 FILLER_14_208
*969 FILLER_14_21
*970 FILLER_14_212
*971 FILLER_14_229
*972 FILLER_14_242
*973 FILLER_14_250
*974 FILLER_14_253
*975 FILLER_14_259
*976 FILLER_14_265
*977 FILLER_14_27
*978 FILLER_14_277
*979 FILLER_14_285
*980 FILLER_14_29
*981 FILLER_14_3
*982 FILLER_14_39
*983 FILLER_14_43
*984 FILLER_14_64
*985 FILLER_14_74
*986 FILLER_14_82
*987 FILLER_14_85
*988 FILLER_15_106
*989 FILLER_15_113
*990 FILLER_15_118
*991 FILLER_15_12
*992 FILLER_15_125
*993 FILLER_15_132
*994 FILLER_15_140
*995 FILLER_15_148
*996 FILLER_15_161
*997 FILLER_15_167
*998 FILLER_15_169
*999 FILLER_15_179
*1000 FILLER_15_192
*1001 FILLER_15_201
*1002 FILLER_15_207
*1003 FILLER_15_211
*1004 FILLER_15_218
*1005 FILLER_15_225
*1006 FILLER_15_243
*1007 FILLER_15_260
*1008 FILLER_15_266
*1009 FILLER_15_278
*1010 FILLER_15_281
*1011 FILLER_15_287
*1012 FILLER_15_3
*1013 FILLER_15_32
*1014 FILLER_15_38
*1015 FILLER_15_49
*1016 FILLER_15_55
*1017 FILLER_15_57
*1018 FILLER_15_66
*1019 FILLER_15_72
*1020 FILLER_15_93
*1021 FILLER_16_117
*1022 FILLER_16_137
*1023 FILLER_16_141
*1024 FILLER_16_163
*1025 FILLER_16_170
*1026 FILLER_16_176
*1027 FILLER_16_185
*1028 FILLER_16_189
*1029 FILLER_16_193
*1030 FILLER_16_197
*1031 FILLER_16_201
*1032 FILLER_16_207
*1033 FILLER_16_220
*1034 FILLER_16_233
*1035 FILLER_16_239
*1036 FILLER_16_245
*1037 FILLER_16_251
*1038 FILLER_16_253
*1039 FILLER_16_26
*1040 FILLER_16_275
*1041 FILLER_16_287
*1042 FILLER_16_29
*1043 FILLER_16_3
*1044 FILLER_16_40
*1045 FILLER_16_52
*1046 FILLER_16_59
*1047 FILLER_16_68
*1048 FILLER_16_72
*1049 FILLER_16_82
*1050 FILLER_16_85
*1051 FILLER_16_9
*1052 FILLER_16_91
*1053 FILLER_17_102
*1054 FILLER_17_106
*1055 FILLER_17_110
*1056 FILLER_17_113
*1057 FILLER_17_13
*1058 FILLER_17_131
*1059 FILLER_17_140
*1060 FILLER_17_148
*1061 FILLER_17_156
*1062 FILLER_17_165
*1063 FILLER_17_169
*1064 FILLER_17_174
*1065 FILLER_17_178
*1066 FILLER_17_195
*1067 FILLER_17_204
*1068 FILLER_17_210
*1069 FILLER_17_216
*1070 FILLER_17_222
*1071 FILLER_17_225
*1072 FILLER_17_243
*1073 FILLER_17_255
*1074 FILLER_17_267
*1075 FILLER_17_279
*1076 FILLER_17_281
*1077 FILLER_17_287
*1078 FILLER_17_3
*1079 FILLER_17_33
*1080 FILLER_17_46
*1081 FILLER_17_50
*1082 FILLER_17_54
*1083 FILLER_17_57
*1084 FILLER_17_66
*1085 FILLER_17_70
*1086 FILLER_17_79
*1087 FILLER_17_85
*1088 FILLER_17_9
*1089 FILLER_18_108
*1090 FILLER_18_11
*1091 FILLER_18_123
*1092 FILLER_18_136
*1093 FILLER_18_141
*1094 FILLER_18_156
*1095 FILLER_18_17
*1096 FILLER_18_176
*1097 FILLER_18_193
*1098 FILLER_18_197
*1099 FILLER_18_204
*1100 FILLER_18_216
*1101 FILLER_18_227
*1102 FILLER_18_235
*1103 FILLER_18_243
*1104 FILLER_18_249
*1105 FILLER_18_253
*1106 FILLER_18_26
*1107 FILLER_18_265
*1108 FILLER_18_277
*1109 FILLER_18_285
*1110 FILLER_18_29
*1111 FILLER_18_3
*1112 FILLER_18_40
*1113 FILLER_18_60
*1114 FILLER_18_73
*1115 FILLER_18_82
*1116 FILLER_18_85
*1117 FILLER_19_105
*1118 FILLER_19_111
*1119 FILLER_19_113
*1120 FILLER_19_122
*1121 FILLER_19_126
*1122 FILLER_19_130
*1123 FILLER_19_142
*1124 FILLER_19_166
*1125 FILLER_19_169
*1126 FILLER_19_180
*1127 FILLER_19_194
*1128 FILLER_19_201
*1129 FILLER_19_208
*1130 FILLER_19_215
*1131 FILLER_19_222
*1132 FILLER_19_225
*1133 FILLER_19_236
*1134 FILLER_19_242
*1135 FILLER_19_248
*1136 FILLER_19_260
*1137 FILLER_19_267
*1138 FILLER_19_279
*1139 FILLER_19_281
*1140 FILLER_19_287
*1141 FILLER_19_3
*1142 FILLER_19_32
*1143 FILLER_19_54
*1144 FILLER_19_57
*1145 FILLER_19_68
*1146 FILLER_19_72
*1147 FILLER_19_8
*1148 FILLER_19_93
*1149 FILLER_19_97
*1150 FILLER_1_109
*1151 FILLER_1_113
*1152 FILLER_1_125
*1153 FILLER_1_137
*1154 FILLER_1_149
*1155 FILLER_1_161
*1156 FILLER_1_167
*1157 FILLER_1_169
*1158 FILLER_1_181
*1159 FILLER_1_193
*1160 FILLER_1_205
*1161 FILLER_1_217
*1162 FILLER_1_223
*1163 FILLER_1_225
*1164 FILLER_1_237
*1165 FILLER_1_249
*1166 FILLER_1_25
*1167 FILLER_1_261
*1168 FILLER_1_273
*1169 FILLER_1_279
*1170 FILLER_1_281
*1171 FILLER_1_287
*1172 FILLER_1_3
*1173 FILLER_1_45
*1174 FILLER_1_51
*1175 FILLER_1_55
*1176 FILLER_1_57
*1177 FILLER_1_61
*1178 FILLER_1_73
*1179 FILLER_1_85
*1180 FILLER_1_97
*1181 FILLER_20_10
*1182 FILLER_20_103
*1183 FILLER_20_109
*1184 FILLER_20_119
*1185 FILLER_20_132
*1186 FILLER_20_138
*1187 FILLER_20_141
*1188 FILLER_20_164
*1189 FILLER_20_173
*1190 FILLER_20_18
*1191 FILLER_20_180
*1192 FILLER_20_187
*1193 FILLER_20_194
*1194 FILLER_20_197
*1195 FILLER_20_208
*1196 FILLER_20_219
*1197 FILLER_20_22
*1198 FILLER_20_243
*1199 FILLER_20_250
*1200 FILLER_20_253
*1201 FILLER_20_259
*1202 FILLER_20_26
*1203 FILLER_20_283
*1204 FILLER_20_287
*1205 FILLER_20_29
*1206 FILLER_20_3
*1207 FILLER_20_35
*1208 FILLER_20_42
*1209 FILLER_20_49
*1210 FILLER_20_73
*1211 FILLER_20_77
*1212 FILLER_20_82
*1213 FILLER_20_85
*1214 FILLER_21_101
*1215 FILLER_21_110
*1216 FILLER_21_113
*1217 FILLER_21_125
*1218 FILLER_21_149
*1219 FILLER_21_15
*1220 FILLER_21_162
*1221 FILLER_21_169
*1222 FILLER_21_174
*1223 FILLER_21_194
*1224 FILLER_21_214
*1225 FILLER_21_218
*1226 FILLER_21_222
*1227 FILLER_21_225
*1228 FILLER_21_23
*1229 FILLER_21_243
*1230 FILLER_21_253
*1231 FILLER_21_278
*1232 FILLER_21_281
*1233 FILLER_21_285
*1234 FILLER_21_3
*1235 FILLER_21_30
*1236 FILLER_21_37
*1237 FILLER_21_43
*1238 FILLER_21_47
*1239 FILLER_21_54
*1240 FILLER_21_57
*1241 FILLER_21_63
*1242 FILLER_21_7
*1243 FILLER_21_90
*1244 FILLER_22_111
*1245 FILLER_22_132
*1246 FILLER_22_138
*1247 FILLER_22_141
*1248 FILLER_22_160
*1249 FILLER_22_180
*1250 FILLER_22_184
*1251 FILLER_22_194
*1252 FILLER_22_197
*1253 FILLER_22_202
*1254 FILLER_22_209
*1255 FILLER_22_233
*1256 FILLER_22_246
*1257 FILLER_22_253
*1258 FILLER_22_257
*1259 FILLER_22_26
*1260 FILLER_22_261
*1261 FILLER_22_275
*1262 FILLER_22_283
*1263 FILLER_22_287
*1264 FILLER_22_29
*1265 FILLER_22_3
*1266 FILLER_22_37
*1267 FILLER_22_44
*1268 FILLER_22_52
*1269 FILLER_22_60
*1270 FILLER_22_66
*1271 FILLER_22_74
*1272 FILLER_22_78
*1273 FILLER_22_82
*1274 FILLER_22_85
*1275 FILLER_22_91
*1276 FILLER_23_103
*1277 FILLER_23_110
*1278 FILLER_23_113
*1279 FILLER_23_124
*1280 FILLER_23_128
*1281 FILLER_23_149
*1282 FILLER_23_15
*1283 FILLER_23_166
*1284 FILLER_23_169
*1285 FILLER_23_174
*1286 FILLER_23_194