*SPEF "ieee 1481-1999"
*DESIGN "tholin_avalonsemi_tbb1143"
*DATE "11:11:11 Fri 11 11, 1111"
*VENDOR "OpenRCX"
*PROGRAM "Parallel Extraction"
*VERSION "1.0"
*DESIGN_FLOW "NAME_SCOPE LOCAL" "PIN_CAP NONE"
*DIVIDER /
*DELIMITER :
*BUS_DELIMITER []
*T_UNIT 1 NS
*C_UNIT 1 PF
*R_UNIT 1 OHM
*L_UNIT 1 HENRY

*NAME_MAP
*1 clk
*2 io_in[0]
*3 io_in[1]
*4 io_in[2]
*5 io_in[3]
*6 io_in[4]
*7 io_in[5]
*8 io_out[0]
*9 io_out[1]
*10 io_out[2]
*11 io_out[3]
*12 io_out[4]
*13 io_out[5]
*14 io_out[6]
*15 io_out[7]
*16 rst
*19 CIRCUIT_2223\.CLK
*20 CIRCUIT_2223\.GATES_1\.input1\[0\]
*21 CIRCUIT_2223\.GATES_1\.input1\[1\]
*22 CIRCUIT_2223\.GATES_1\.input1\[2\]
*23 CIRCUIT_2223\.GATES_1\.input1\[3\]
*24 CIRCUIT_2223\.GATES_11\.input2
*25 CIRCUIT_2223\.GATES_2\.input2
*26 CIRCUIT_2223\.GATES_3\.input2
*27 CIRCUIT_2223\.GATES_4\.input1\[0\]
*28 CIRCUIT_2223\.GATES_4\.input1\[1\]
*29 CIRCUIT_2223\.GATES_4\.input1\[2\]
*30 CIRCUIT_2223\.GATES_4\.input1\[3\]
*31 CIRCUIT_2223\.GATES_5\.input2
*32 CIRCUIT_2223\.MEMORY_18\.clock
*33 CIRCUIT_2223\.MEMORY_18\.d
*34 CIRCUIT_2223\.MEMORY_18\.s_currentState
*35 CIRCUIT_2223\.MEMORY_19\.d
*36 CIRCUIT_2223\.MEMORY_19\.s_currentState
*37 CIRCUIT_2223\.MEMORY_20\.d
*38 CIRCUIT_2223\.MEMORY_20\.s_currentState
*39 CIRCUIT_2223\.MEMORY_21\.d
*40 CIRCUIT_2223\.MEMORY_21\.s_currentState
*41 CIRCUIT_2223\.MEMORY_22\.d
*42 CIRCUIT_2223\.MEMORY_22\.s_currentState
*43 CIRCUIT_2223\.MEMORY_23\.s_currentState
*44 CIRCUIT_2223\.MEMORY_24\.d
*45 CIRCUIT_2223\.MEMORY_24\.s_currentState
*46 CIRCUIT_2223\.MEMORY_25\.d
*47 CIRCUIT_2223\.MEMORY_25\.s_currentState
*48 CIRCUIT_2223\.MEMORY_26\.s_currentState
*49 CIRCUIT_2223\.s_logisimNet48
*50 CIRCUIT_2223\.tone_generator_1\.GATES_1\.result
*51 CIRCUIT_2223\.tone_generator_1\.GATES_2\.result
*52 CIRCUIT_2223\.tone_generator_1\.GATES_3\.result
*53 CIRCUIT_2223\.tone_generator_1\.MEMORY_10\.s_currentState
*54 CIRCUIT_2223\.tone_generator_1\.MEMORY_11\.s_currentState
*55 CIRCUIT_2223\.tone_generator_1\.MEMORY_12\.s_currentState
*56 CIRCUIT_2223\.tone_generator_1\.MEMORY_13\.s_currentState
*57 CIRCUIT_2223\.tone_generator_1\.MEMORY_14\.s_currentState
*58 CIRCUIT_2223\.tone_generator_1\.MEMORY_15\.s_currentState
*59 CIRCUIT_2223\.tone_generator_1\.MEMORY_16\.s_currentState
*60 CIRCUIT_2223\.tone_generator_1\.MEMORY_17\.s_currentState
*61 CIRCUIT_2223\.tone_generator_1\.MEMORY_18\.s_currentState
*62 CIRCUIT_2223\.tone_generator_1\.MEMORY_19\.s_currentState
*63 CIRCUIT_2223\.tone_generator_1\.MEMORY_20\.s_currentState
*64 CIRCUIT_2223\.tone_generator_1\.MEMORY_4\.s_currentState
*65 CIRCUIT_2223\.tone_generator_1\.MEMORY_6\.s_currentState
*66 CIRCUIT_2223\.tone_generator_1\.MEMORY_7\.s_currentState
*67 CIRCUIT_2223\.tone_generator_1\.MEMORY_8\.s_currentState
*68 CIRCUIT_2223\.tone_generator_1\.MEMORY_9\.s_currentState
*69 CIRCUIT_2223\.tone_generator_1\.tone_generator_2_1\.GATES_10\.input2
*70 CIRCUIT_2223\.tone_generator_1\.tone_generator_2_1\.GATES_11\.input2
*71 CIRCUIT_2223\.tone_generator_1\.tone_generator_2_1\.GATES_12\.input2
*72 CIRCUIT_2223\.tone_generator_1\.tone_generator_2_1\.GATES_13\.input2
*73 CIRCUIT_2223\.tone_generator_1\.tone_generator_2_1\.GATES_14\.input2
*74 CIRCUIT_2223\.tone_generator_1\.tone_generator_2_1\.GATES_15\.input2
*75 CIRCUIT_2223\.tone_generator_1\.tone_generator_2_1\.GATES_16\.input2
*76 CIRCUIT_2223\.tone_generator_1\.tone_generator_2_1\.GATES_17\.input2
*77 CIRCUIT_2223\.tone_generator_1\.tone_generator_2_1\.GATES_27\.result
*78 CIRCUIT_2223\.tone_generator_1\.tone_generator_2_1\.GATES_7\.input2
*79 CIRCUIT_2223\.tone_generator_1\.tone_generator_2_1\.GATES_8\.input2
*80 CIRCUIT_2223\.tone_generator_1\.tone_generator_2_1\.GATES_9\.input2
*81 CIRCUIT_2223\.tone_generator_1\.tone_generator_2_1\.MEMORY_28\.clock
*82 CIRCUIT_2223\.tone_generator_1\.tone_generator_2_1\.MEMORY_28\.d
*83 CIRCUIT_2223\.tone_generator_1\.tone_generator_2_1\.MEMORY_28\.s_currentState
*84 CIRCUIT_2223\.tone_generator_1\.tone_generator_2_1\.MEMORY_29\.d
*85 CIRCUIT_2223\.tone_generator_1\.tone_generator_2_1\.MEMORY_29\.s_currentState
*86 CIRCUIT_2223\.tone_generator_1\.tone_generator_2_1\.MEMORY_30\.d
*87 CIRCUIT_2223\.tone_generator_1\.tone_generator_2_1\.MEMORY_30\.s_currentState
*88 CIRCUIT_2223\.tone_generator_1\.tone_generator_2_1\.MEMORY_31\.d
*89 CIRCUIT_2223\.tone_generator_1\.tone_generator_2_1\.MEMORY_31\.s_currentState
*90 CIRCUIT_2223\.tone_generator_1\.tone_generator_2_1\.MEMORY_32\.d
*91 CIRCUIT_2223\.tone_generator_1\.tone_generator_2_1\.MEMORY_32\.s_currentState
*92 CIRCUIT_2223\.tone_generator_1\.tone_generator_2_1\.MEMORY_33\.d
*93 CIRCUIT_2223\.tone_generator_1\.tone_generator_2_1\.MEMORY_33\.s_currentState
*94 CIRCUIT_2223\.tone_generator_1\.tone_generator_2_1\.MEMORY_34\.d
*95 CIRCUIT_2223\.tone_generator_1\.tone_generator_2_1\.MEMORY_34\.s_currentState
*96 CIRCUIT_2223\.tone_generator_1\.tone_generator_2_1\.MEMORY_35\.d
*97 CIRCUIT_2223\.tone_generator_1\.tone_generator_2_1\.MEMORY_35\.s_currentState
*98 CIRCUIT_2223\.tone_generator_1\.tone_generator_2_1\.MEMORY_36\.d
*99 CIRCUIT_2223\.tone_generator_1\.tone_generator_2_1\.MEMORY_36\.s_currentState
*100 CIRCUIT_2223\.tone_generator_1\.tone_generator_2_1\.MEMORY_37\.d
*101 CIRCUIT_2223\.tone_generator_1\.tone_generator_2_1\.MEMORY_37\.s_currentState
*102 CIRCUIT_2223\.tone_generator_1\.tone_generator_2_1\.MEMORY_38\.s_currentState
*103 CIRCUIT_2223\.tone_generator_1\.tone_generator_2_1\.MEMORY_39\.d
*104 CIRCUIT_2223\.tone_generator_1\.tone_generator_2_1\.MEMORY_39\.s_currentState
*105 CIRCUIT_2223\.tone_generator_2_1\.GATES_10\.input2
*106 CIRCUIT_2223\.tone_generator_2_1\.GATES_11\.input2
*107 CIRCUIT_2223\.tone_generator_2_1\.GATES_12\.input2
*108 CIRCUIT_2223\.tone_generator_2_1\.GATES_13\.input2
*109 CIRCUIT_2223\.tone_generator_2_1\.GATES_14\.input2
*110 CIRCUIT_2223\.tone_generator_2_1\.GATES_15\.input2
*111 CIRCUIT_2223\.tone_generator_2_1\.GATES_16\.input2
*112 CIRCUIT_2223\.tone_generator_2_1\.GATES_17\.input2
*113 CIRCUIT_2223\.tone_generator_2_1\.GATES_27\.result
*114 CIRCUIT_2223\.tone_generator_2_1\.GATES_7\.input2
*115 CIRCUIT_2223\.tone_generator_2_1\.GATES_8\.input2
*116 CIRCUIT_2223\.tone_generator_2_1\.GATES_9\.input2
*117 CIRCUIT_2223\.tone_generator_2_1\.MEMORY_28\.clock
*118 CIRCUIT_2223\.tone_generator_2_1\.MEMORY_28\.d
*119 CIRCUIT_2223\.tone_generator_2_1\.MEMORY_28\.s_currentState
*120 CIRCUIT_2223\.tone_generator_2_1\.MEMORY_29\.d
*121 CIRCUIT_2223\.tone_generator_2_1\.MEMORY_29\.s_currentState
*122 CIRCUIT_2223\.tone_generator_2_1\.MEMORY_30\.d
*123 CIRCUIT_2223\.tone_generator_2_1\.MEMORY_30\.s_currentState
*124 CIRCUIT_2223\.tone_generator_2_1\.MEMORY_31\.d
*125 CIRCUIT_2223\.tone_generator_2_1\.MEMORY_31\.s_currentState
*126 CIRCUIT_2223\.tone_generator_2_1\.MEMORY_32\.d
*127 CIRCUIT_2223\.tone_generator_2_1\.MEMORY_32\.s_currentState
*128 CIRCUIT_2223\.tone_generator_2_1\.MEMORY_33\.d
*129 CIRCUIT_2223\.tone_generator_2_1\.MEMORY_33\.s_currentState
*130 CIRCUIT_2223\.tone_generator_2_1\.MEMORY_34\.d
*131 CIRCUIT_2223\.tone_generator_2_1\.MEMORY_34\.s_currentState
*132 CIRCUIT_2223\.tone_generator_2_1\.MEMORY_35\.d
*133 CIRCUIT_2223\.tone_generator_2_1\.MEMORY_35\.s_currentState
*134 CIRCUIT_2223\.tone_generator_2_1\.MEMORY_36\.d
*135 CIRCUIT_2223\.tone_generator_2_1\.MEMORY_36\.s_currentState
*136 CIRCUIT_2223\.tone_generator_2_1\.MEMORY_37\.d
*137 CIRCUIT_2223\.tone_generator_2_1\.MEMORY_37\.s_currentState
*138 CIRCUIT_2223\.tone_generator_2_1\.MEMORY_38\.s_currentState
*139 CIRCUIT_2223\.tone_generator_2_1\.MEMORY_39\.d
*140 CIRCUIT_2223\.tone_generator_2_1\.MEMORY_39\.s_currentState
*141 CIRCUIT_2223\.tone_generator_2_2\.GATES_10\.input2
*142 CIRCUIT_2223\.tone_generator_2_2\.GATES_11\.input2
*143 CIRCUIT_2223\.tone_generator_2_2\.GATES_12\.input2
*144 CIRCUIT_2223\.tone_generator_2_2\.GATES_13\.input2
*145 CIRCUIT_2223\.tone_generator_2_2\.GATES_14\.input2
*146 CIRCUIT_2223\.tone_generator_2_2\.GATES_15\.input2
*147 CIRCUIT_2223\.tone_generator_2_2\.GATES_16\.input2
*148 CIRCUIT_2223\.tone_generator_2_2\.GATES_17\.input2
*149 CIRCUIT_2223\.tone_generator_2_2\.GATES_27\.result
*150 CIRCUIT_2223\.tone_generator_2_2\.GATES_7\.input2
*151 CIRCUIT_2223\.tone_generator_2_2\.GATES_8\.input2
*152 CIRCUIT_2223\.tone_generator_2_2\.GATES_9\.input2
*153 CIRCUIT_2223\.tone_generator_2_2\.MEMORY_28\.clock
*154 CIRCUIT_2223\.tone_generator_2_2\.MEMORY_28\.d
*155 CIRCUIT_2223\.tone_generator_2_2\.MEMORY_28\.s_currentState
*156 CIRCUIT_2223\.tone_generator_2_2\.MEMORY_29\.d
*157 CIRCUIT_2223\.tone_generator_2_2\.MEMORY_29\.s_currentState
*158 CIRCUIT_2223\.tone_generator_2_2\.MEMORY_30\.d
*159 CIRCUIT_2223\.tone_generator_2_2\.MEMORY_30\.s_currentState
*160 CIRCUIT_2223\.tone_generator_2_2\.MEMORY_31\.d
*161 CIRCUIT_2223\.tone_generator_2_2\.MEMORY_31\.s_currentState
*162 CIRCUIT_2223\.tone_generator_2_2\.MEMORY_32\.d
*163 CIRCUIT_2223\.tone_generator_2_2\.MEMORY_32\.s_currentState
*164 CIRCUIT_2223\.tone_generator_2_2\.MEMORY_33\.d
*165 CIRCUIT_2223\.tone_generator_2_2\.MEMORY_33\.s_currentState
*166 CIRCUIT_2223\.tone_generator_2_2\.MEMORY_34\.d
*167 CIRCUIT_2223\.tone_generator_2_2\.MEMORY_34\.s_currentState
*168 CIRCUIT_2223\.tone_generator_2_2\.MEMORY_35\.d
*169 CIRCUIT_2223\.tone_generator_2_2\.MEMORY_35\.s_currentState
*170 CIRCUIT_2223\.tone_generator_2_2\.MEMORY_36\.d
*171 CIRCUIT_2223\.tone_generator_2_2\.MEMORY_36\.s_currentState
*172 CIRCUIT_2223\.tone_generator_2_2\.MEMORY_37\.d
*173 CIRCUIT_2223\.tone_generator_2_2\.MEMORY_37\.s_currentState
*174 CIRCUIT_2223\.tone_generator_2_2\.MEMORY_38\.s_currentState
*175 CIRCUIT_2223\.tone_generator_2_2\.MEMORY_39\.d
*176 CIRCUIT_2223\.tone_generator_2_2\.MEMORY_39\.s_currentState
*177 CIRCUIT_2223\.triangle_wave_generator_1\.GATES_10\.input2
*178 CIRCUIT_2223\.triangle_wave_generator_1\.GATES_11\.input2
*179 CIRCUIT_2223\.triangle_wave_generator_1\.GATES_12\.input2
*180 CIRCUIT_2223\.triangle_wave_generator_1\.GATES_13\.input2
*181 CIRCUIT_2223\.triangle_wave_generator_1\.GATES_14\.input2
*182 CIRCUIT_2223\.triangle_wave_generator_1\.GATES_15\.input2
*183 CIRCUIT_2223\.triangle_wave_generator_1\.GATES_16\.input2
*184 CIRCUIT_2223\.triangle_wave_generator_1\.GATES_17\.input2
*185 CIRCUIT_2223\.triangle_wave_generator_1\.GATES_27\.result
*186 CIRCUIT_2223\.triangle_wave_generator_1\.GATES_7\.input2
*187 CIRCUIT_2223\.triangle_wave_generator_1\.GATES_8\.input2
*188 CIRCUIT_2223\.triangle_wave_generator_1\.GATES_9\.input2
*189 CIRCUIT_2223\.triangle_wave_generator_1\.MEMORY_28\.clock
*190 CIRCUIT_2223\.triangle_wave_generator_1\.MEMORY_28\.d
*191 CIRCUIT_2223\.triangle_wave_generator_1\.MEMORY_28\.s_currentState
*192 CIRCUIT_2223\.triangle_wave_generator_1\.MEMORY_29\.d
*193 CIRCUIT_2223\.triangle_wave_generator_1\.MEMORY_29\.s_currentState
*194 CIRCUIT_2223\.triangle_wave_generator_1\.MEMORY_30\.d
*195 CIRCUIT_2223\.triangle_wave_generator_1\.MEMORY_30\.s_currentState
*196 CIRCUIT_2223\.triangle_wave_generator_1\.MEMORY_31\.d
*197 CIRCUIT_2223\.triangle_wave_generator_1\.MEMORY_31\.s_currentState
*198 CIRCUIT_2223\.triangle_wave_generator_1\.MEMORY_32\.d
*199 CIRCUIT_2223\.triangle_wave_generator_1\.MEMORY_32\.s_currentState
*200 CIRCUIT_2223\.triangle_wave_generator_1\.MEMORY_33\.d
*201 CIRCUIT_2223\.triangle_wave_generator_1\.MEMORY_33\.s_currentState
*202 CIRCUIT_2223\.triangle_wave_generator_1\.MEMORY_34\.d
*203 CIRCUIT_2223\.triangle_wave_generator_1\.MEMORY_34\.s_currentState
*204 CIRCUIT_2223\.triangle_wave_generator_1\.MEMORY_35\.d
*205 CIRCUIT_2223\.triangle_wave_generator_1\.MEMORY_35\.s_currentState
*206 CIRCUIT_2223\.triangle_wave_generator_1\.MEMORY_36\.d
*207 CIRCUIT_2223\.triangle_wave_generator_1\.MEMORY_36\.s_currentState
*208 CIRCUIT_2223\.triangle_wave_generator_1\.MEMORY_37\.d
*209 CIRCUIT_2223\.triangle_wave_generator_1\.MEMORY_37\.s_currentState
*210 CIRCUIT_2223\.triangle_wave_generator_1\.MEMORY_38\.s_currentState
*211 CIRCUIT_2223\.triangle_wave_generator_1\.MEMORY_39\.d
*212 CIRCUIT_2223\.triangle_wave_generator_1\.MEMORY_39\.s_currentState
*213 CIRCUIT_2223\.triangle_wave_generator_1\.MEMORY_40\.clock
*214 CIRCUIT_2223\.triangle_wave_generator_1\.MEMORY_40\.d
*215 CIRCUIT_2223\.triangle_wave_generator_1\.MEMORY_40\.s_currentState
*216 CIRCUIT_2223\.triangle_wave_generator_1\.MEMORY_41\.clock
*217 CIRCUIT_2223\.triangle_wave_generator_1\.MEMORY_41\.s_currentState
*218 CIRCUIT_2223\.triangle_wave_generator_1\.MEMORY_42\.s_currentState
*219 _000_
*220 _001_
*221 _002_
*222 _003_
*223 _004_
*224 _005_
*225 _006_
*226 _007_
*227 _008_
*228 _009_
*229 _010_
*230 _011_
*231 _012_
*232 _013_
*233 _014_
*234 _015_
*235 _016_
*236 _017_
*237 _018_
*238 _019_
*239 _020_
*240 _021_
*241 _022_
*242 _023_
*243 _024_
*244 _025_
*245 _026_
*246 _027_
*247 _028_
*248 _029_
*249 _030_
*250 _031_
*251 _032_
*252 _033_
*253 _034_
*254 _035_
*255 _036_
*256 _037_
*257 _038_
*258 _039_
*259 _040_
*260 _041_
*261 _042_
*262 _043_
*263 _044_
*264 _045_
*265 _046_
*266 _047_
*267 _048_
*268 _049_
*269 _050_
*270 _051_
*271 _052_
*272 _053_
*273 _054_
*274 _055_
*275 _056_
*276 _057_
*277 _058_
*278 _059_
*279 _060_
*280 _061_
*281 _062_
*282 _063_
*283 _064_
*284 _065_
*285 _066_
*286 _067_
*287 _068_
*288 _069_
*289 _070_
*290 _071_
*291 _072_
*292 _073_
*293 _074_
*294 _075_
*295 _076_
*296 _077_
*297 _078_
*298 _079_
*299 _080_
*300 _081_
*301 _082_
*302 _083_
*303 _084_
*304 _085_
*305 _086_
*306 _087_
*307 _088_
*308 _089_
*309 _090_
*310 _091_
*311 _092_
*312 _093_
*313 _094_
*314 _095_
*315 _096_
*316 _097_
*317 _098_
*318 _099_
*319 _100_
*320 _101_
*321 _102_
*322 _103_
*323 _104_
*324 _105_
*325 _106_
*326 _107_
*327 _108_
*328 _109_
*329 _110_
*330 _111_
*331 _112_
*332 _113_
*333 _114_
*334 _115_
*335 _116_
*336 _117_
*337 _118_
*338 _119_
*339 _120_
*340 _121_
*341 _122_
*342 _123_
*343 _124_
*344 _125_
*345 _126_
*346 _127_
*347 _128_
*348 _129_
*349 _130_
*350 _131_
*351 _132_
*352 _133_
*353 _134_
*354 _135_
*355 _136_
*356 _137_
*357 _138_
*358 _139_
*359 _140_
*360 _141_
*361 _142_
*362 _143_
*363 _144_
*364 _145_
*365 _146_
*366 _147_
*367 _148_
*368 _149_
*369 _150_
*370 _151_
*371 _152_
*372 _153_
*373 _154_
*374 _155_
*375 _156_
*376 _157_
*377 _158_
*378 _159_
*379 _160_
*380 _161_
*381 _162_
*382 _163_
*383 _164_
*384 _165_
*385 _166_
*386 _167_
*387 _168_
*388 _169_
*389 _170_
*390 _171_
*391 _172_
*392 _173_
*393 _174_
*394 _175_
*395 _176_
*396 _177_
*397 _178_
*398 _179_
*399 _180_
*400 _181_
*401 _182_
*402 _183_
*403 _184_
*404 _185_
*405 _186_
*406 _187_
*407 _188_
*408 _189_
*409 _190_
*410 _191_
*411 _192_
*412 _193_
*413 _194_
*414 _195_
*415 _196_
*416 _197_
*417 _198_
*418 _199_
*419 _200_
*420 _201_
*421 _202_
*422 _203_
*423 _204_
*424 _205_
*425 _206_
*426 _207_
*427 _208_
*428 _209_
*429 _210_
*430 _211_
*431 _212_
*432 _213_
*433 _214_
*434 _215_
*435 _216_
*436 _217_
*437 _218_
*438 _219_
*439 _220_
*440 _221_
*441 _222_
*442 _223_
*443 _224_
*444 _225_
*445 _226_
*446 _227_
*447 _228_
*448 _229_
*449 _230_
*450 _231_
*451 _232_
*452 _233_
*453 _234_
*454 _235_
*455 _236_
*456 _237_
*457 _238_
*458 _239_
*459 _240_
*460 _241_
*461 _242_
*462 _243_
*463 _244_
*464 _245_
*465 _246_
*466 _247_
*467 _248_
*468 _249_
*469 _250_
*470 _251_
*471 _252_
*472 _253_
*473 _254_
*474 _255_
*475 _256_
*476 _257_
*477 _258_
*478 _259_
*479 _260_
*480 _261_
*481 _262_
*482 _263_
*483 _264_
*484 _265_
*485 _266_
*486 _267_
*487 _268_
*488 _269_
*489 _270_
*490 _271_
*491 _272_
*492 _273_
*493 _274_
*494 _275_
*495 _276_
*496 _277_
*497 _278_
*498 _279_
*499 _280_
*500 _281_
*501 _282_
*502 _283_
*503 _284_
*504 _285_
*505 _286_
*506 _287_
*507 _288_
*508 _289_
*509 _290_
*510 _291_
*511 _292_
*512 _293_
*513 _294_
*514 _295_
*515 _296_
*516 _297_
*517 _298_
*518 _299_
*519 _300_
*520 _301_
*521 _302_
*522 _303_
*523 _304_
*524 _305_
*525 _306_
*526 _307_
*527 clknet_0__183_
*528 clknet_0__203_
*529 clknet_0__222_
*530 clknet_0__245_
*531 clknet_0__264_
*532 clknet_0_clk
*533 clknet_1_0__leaf__183_
*534 clknet_1_0__leaf__203_
*535 clknet_1_0__leaf__222_
*536 clknet_1_0__leaf__245_
*537 clknet_1_0__leaf__264_
*538 clknet_1_0__leaf_clk
*539 clknet_1_1__leaf__183_
*540 clknet_1_1__leaf__203_
*541 clknet_1_1__leaf__222_
*542 clknet_1_1__leaf__245_
*543 clknet_1_1__leaf__264_
*544 clknet_1_1__leaf_clk
*545 net1
*546 net10
*547 net11
*548 net12
*549 net13
*550 net14
*551 net15
*552 net16
*553 net17
*554 net18
*555 net19
*556 net2
*557 net20
*558 net21
*559 net22
*560 net23
*561 net24
*562 net25
*563 net26
*564 net27
*565 net28
*566 net29
*567 net3
*568 net30
*569 net31
*570 net32
*571 net33
*572 net34
*573 net35
*574 net36
*575 net37
*576 net38
*577 net39
*578 net4
*579 net40
*580 net41
*581 net42
*582 net43
*583 net44
*584 net45
*585 net5
*586 net6
*587 net7
*588 net8
*589 net9
*590 slow_clock\[0\]
*591 slow_clock\[1\]
*592 slow_clock\[2\]
*593 slow_clock\[3\]
*594 slow_clock\[4\]
*595 slow_clock\[5\]
*596 slow_clock\[6\]
*597 FILLER_0_109
*598 FILLER_0_113
*599 FILLER_0_125
*600 FILLER_0_137
*601 FILLER_0_141
*602 FILLER_0_15
*603 FILLER_0_153
*604 FILLER_0_165
*605 FILLER_0_169
*606 FILLER_0_181
*607 FILLER_0_193
*608 FILLER_0_197
*609 FILLER_0_209
*610 FILLER_0_221
*611 FILLER_0_225
*612 FILLER_0_237
*613 FILLER_0_249
*614 FILLER_0_253
*615 FILLER_0_265
*616 FILLER_0_27
*617 FILLER_0_277
*618 FILLER_0_281
*619 FILLER_0_29
*620 FILLER_0_293
*621 FILLER_0_3
*622 FILLER_0_305
*623 FILLER_0_309
*624 FILLER_0_318
*625 FILLER_0_41
*626 FILLER_0_53
*627 FILLER_0_57
*628 FILLER_0_69
*629 FILLER_0_81
*630 FILLER_0_85
*631 FILLER_0_97
*632 FILLER_10_102
*633 FILLER_10_126
*634 FILLER_10_135
*635 FILLER_10_139
*636 FILLER_10_141
*637 FILLER_10_15
*638 FILLER_10_153
*639 FILLER_10_159
*640 FILLER_10_166
*641 FILLER_10_191
*642 FILLER_10_195
*643 FILLER_10_197
*644 FILLER_10_202
*645 FILLER_10_210
*646 FILLER_10_231
*647 FILLER_10_243
*648 FILLER_10_251
*649 FILLER_10_253
*650 FILLER_10_27
*651 FILLER_10_271
*652 FILLER_10_283
*653 FILLER_10_29
*654 FILLER_10_295
*655 FILLER_10_299
*656 FILLER_10_3
*657 FILLER_10_307
*658 FILLER_10_309
*659 FILLER_10_317
*660 FILLER_10_41
*661 FILLER_10_45
*662 FILLER_10_67
*663 FILLER_10_74
*664 FILLER_10_82
*665 FILLER_10_85
*666 FILLER_10_90
*667 FILLER_11_105
*668 FILLER_11_110
*669 FILLER_11_113
*670 FILLER_11_124
*671 FILLER_11_135
*672 FILLER_11_142
*673 FILLER_11_15
*674 FILLER_11_154
*675 FILLER_11_166
*676 FILLER_11_169
*677 FILLER_11_191
*678 FILLER_11_216
*679 FILLER_11_225
*680 FILLER_11_230
*681 FILLER_11_242
*682 FILLER_11_246
*683 FILLER_11_263
*684 FILLER_11_27
*685 FILLER_11_275
*686 FILLER_11_279
*687 FILLER_11_281
*688 FILLER_11_287
*689 FILLER_11_294
*690 FILLER_11_3
*691 FILLER_11_301
*692 FILLER_11_313
*693 FILLER_11_319
*694 FILLER_11_39
*695 FILLER_11_47
*696 FILLER_11_52
*697 FILLER_11_57
*698 FILLER_11_62
*699 FILLER_11_70
*700 FILLER_11_93
*701 FILLER_12_106
*702 FILLER_12_118
*703 FILLER_12_126
*704 FILLER_12_134
*705 FILLER_12_141
*706 FILLER_12_15
*707 FILLER_12_161
*708 FILLER_12_173
*709 FILLER_12_185
*710 FILLER_12_193
*711 FILLER_12_197
*712 FILLER_12_203
*713 FILLER_12_207
*714 FILLER_12_219
*715 FILLER_12_231
*716 FILLER_12_238
*717 FILLER_12_250
*718 FILLER_12_253
*719 FILLER_12_258
*720 FILLER_12_27
*721 FILLER_12_270
*722 FILLER_12_282
*723 FILLER_12_288
*724 FILLER_12_29
*725 FILLER_12_296
*726 FILLER_12_3
*727 FILLER_12_305
*728 FILLER_12_309
*729 FILLER_12_318
*730 FILLER_12_41
*731 FILLER_12_53
*732 FILLER_12_65
*733 FILLER_12_82
*734 FILLER_12_85
*735 FILLER_12_94
*736 FILLER_13_108
*737 FILLER_13_113
*738 FILLER_13_124
*739 FILLER_13_136
*740 FILLER_13_148
*741 FILLER_13_15
*742 FILLER_13_158
*743 FILLER_13_166
*744 FILLER_13_169
*745 FILLER_13_184
*746 FILLER_13_196
*747 FILLER_13_208
*748 FILLER_13_220
*749 FILLER_13_225
*750 FILLER_13_243
*751 FILLER_13_251
*752 FILLER_13_27
*753 FILLER_13_273
*754 FILLER_13_279
*755 FILLER_13_281
*756 FILLER_13_289
*757 FILLER_13_3
*758 FILLER_13_308
*759 FILLER_13_318
*760 FILLER_13_39
*761 FILLER_13_53
*762 FILLER_13_57
*763 FILLER_13_63
*764 FILLER_13_80
*765 FILLER_13_92
*766 FILLER_14_115
*767 FILLER_14_123
*768 FILLER_14_131
*769 FILLER_14_139
*770 FILLER_14_141
*771 FILLER_14_15
*772 FILLER_14_152
*773 FILLER_14_164
*774 FILLER_14_170
*775 FILLER_14_184
*776 FILLER_14_197
*777 FILLER_14_209
*778 FILLER_14_213
*779 FILLER_14_234
*780 FILLER_14_246
*781 FILLER_14_253
*782 FILLER_14_268
*783 FILLER_14_27
*784 FILLER_14_280
*785 FILLER_14_288
*786 FILLER_14_29
*787 FILLER_14_298
*788 FILLER_14_3
*789 FILLER_14_305
*790 FILLER_14_309
*791 FILLER_14_317
*792 FILLER_14_41
*793 FILLER_14_65
*794 FILLER_14_80
*795 FILLER_14_85
*796 FILLER_14_93
*797 FILLER_15_103
*798 FILLER_15_110
*799 FILLER_15_113
*800 FILLER_15_119
*801 FILLER_15_127
*802 FILLER_15_147
*803 FILLER_15_15
*804 FILLER_15_159
*805 FILLER_15_166
*806 FILLER_15_169
*807 FILLER_15_192
*808 FILLER_15_196
*809 FILLER_15_210
*810 FILLER_15_222
*811 FILLER_15_225
*812 FILLER_15_240
*813 FILLER_15_252
*814 FILLER_15_256
*815 FILLER_15_27
*816 FILLER_15_278
*817 FILLER_15_281
*818 FILLER_15_294
*819 FILLER_15_3
*820 FILLER_15_306
*821 FILLER_15_313
*822 FILLER_15_319
*823 FILLER_15_54
*824 FILLER_15_57
*825 FILLER_15_62
*826 FILLER_15_75
*827 FILLER_16_110
*828 FILLER_16_118
*829 FILLER_16_135
*830 FILLER_16_139
*831 FILLER_16_141
*832 FILLER_16_15
*833 FILLER_16_153
*834 FILLER_16_161
*835 FILLER_16_165
*836 FILLER_16_190
*837 FILLER_16_197
*838 FILLER_16_220
*839 FILLER_16_245
*840 FILLER_16_251
*841 FILLER_16_253
*842 FILLER_16_259
*843 FILLER_16_27
*844 FILLER_16_272
*845 FILLER_16_284
*846 FILLER_16_29
*847 FILLER_16_296
*848 FILLER_16_3
*849 FILLER_16_306
*850 FILLER_16_309
*851 FILLER_16_318
*852 FILLER_16_35
*853 FILLER_16_52
*854 FILLER_16_64
*855 FILLER_16_79
*856 FILLER_16_83
*857 FILLER_16_85
*858 FILLER_16_93
*859 FILLER_16_98
*860 FILLER_17_107
*861 FILLER_17_111
*862 FILLER_17_113
*863 FILLER_17_134
*864 FILLER_17_146
*865 FILLER_17_15
*866 FILLER_17_158
*867 FILLER_17_166
*868 FILLER_17_169
*869 FILLER_17_173
*870 FILLER_17_190
*871 FILLER_17_197
*872 FILLER_17_201
*873 FILLER_17_205
*874 FILLER_17_216
*875 FILLER_17_225
*876 FILLER_17_230
*877 FILLER_17_249
*878 FILLER_17_261
*879 FILLER_17_27
*880 FILLER_17_273
*881 FILLER_17_279
*882 FILLER_17_281
*883 FILLER_17_293
*884 FILLER_17_3
*885 FILLER_17_305
*886 FILLER_17_317
*887 FILLER_17_54
*888 FILLER_17_57
*889 FILLER_17_61
*890 FILLER_17_78
*891 FILLER_17_85
*892 FILLER_17_89
*893 FILLER_17_97
*894 FILLER_18_109
*895 FILLER_18_121
*896 FILLER_18_125
*897 FILLER_18_137
*898 FILLER_18_141
*899 FILLER_18_15
*900 FILLER_18_153
*901 FILLER_18_159
*902 FILLER_18_176
*903 FILLER_18_183
*904 FILLER_18_195
*905 FILLER_18_197
*906 FILLER_18_209
*907 FILLER_18_221
*908 FILLER_18_250
*909 FILLER_18_253
*910 FILLER_18_259
*911 FILLER_18_27
*912 FILLER_18_273
*913 FILLER_18_285
*914 FILLER_18_29
*915 FILLER_18_297
*916 FILLER_18_3
*917 FILLER_18_305
*918 FILLER_18_309
*919 FILLER_18_317
*920 FILLER_18_37
*921 FILLER_18_43
*922 FILLER_18_50
*923 FILLER_18_62
*924 FILLER_18_66
*925 FILLER_18_78
*926 FILLER_18_85
*927 FILLER_18_97
*928 FILLER_19_109
*929 FILLER_19_113
*930 FILLER_19_125
*931 FILLER_19_144
*932 FILLER_19_15
*933 FILLER_19_157
*934 FILLER_19_165
*935 FILLER_19_169
*936 FILLER_19_180
*937 FILLER_19_192
*938 FILLER_19_198
*939 FILLER_19_206
*940 FILLER_19_218
*941 FILLER_19_225
*942 FILLER_19_233
*943 FILLER_19_238
*944 FILLER_19_245
*945 FILLER_19_249
*946 FILLER_19_253
*947 FILLER_19_27
*948 FILLER_19_278
*949 FILLER_19_281
*950 FILLER_19_298
*951 FILLER_19_3
*952 FILLER_19_315
*953 FILLER_19_319
*954 FILLER_19_52
*955 FILLER_19_57
*956 FILLER_19_65
*957 FILLER_19_72
*958 FILLER_19_76
*959 FILLER_19_84
*960 FILLER_19_97
*961 FILLER_1_105
*962 FILLER_1_111
*963 FILLER_1_113
*964 FILLER_1_125
*965 FILLER_1_137
*966 FILLER_1_149
*967 FILLER_1_15
*968 FILLER_1_161
*969 FILLER_1_167
*970 FILLER_1_169
*971 FILLER_1_181
*972 FILLER_1_193
*973 FILLER_1_205
*974 FILLER_1_217
*975 FILLER_1_223
*976 FILLER_1_225
*977 FILLER_1_237
*978 FILLER_1_249
*979 FILLER_1_261
*980 FILLER_1_27
*981 FILLER_1_273
*982 FILLER_1_279
*983 FILLER_1_281
*984 FILLER_1_293
*985 FILLER_1_3
*986 FILLER_1_305
*987 FILLER_1_317
*988 FILLER_1_39
*989 FILLER_1_51
*990 FILLER_1_55
*991 FILLER_1_57
*992 FILLER_1_69
*993 FILLER_1_81
*994 FILLER_1_93
*995 FILLER_20_103
*996 FILLER_20_115
*997 FILLER_20_123
*998 FILLER_20_135
*999 FILLER_20_139
*1000 FILLER_20_141
*1001 FILLER_20_15
*1002 FILLER_20_153
*1003 FILLER_20_161
*1004 FILLER_20_180
*1005 FILLER_20_191
*1006 FILLER_20_195
*1007 FILLER_20_197
*1008 FILLER_20_209
*1009 FILLER_20_218
*1010 FILLER_20_230
*1011 FILLER_20_242
*1012 FILLER_20_246
*1013 FILLER_20_250
*1014 FILLER_20_253
*1015 FILLER_20_27
*1016 FILLER_20_275
*1017 FILLER_20_29
*1018 FILLER_20_3
*1019 FILLER_20_302
*1020 FILLER_20_309
*1021 FILLER_20_314
*1022 FILLER_20_37
*1023 FILLER_20_42
*1024 FILLER_20_64
*1025 FILLER_20_76
*1026 FILLER_20_85
*1027 FILLER_21_102
*1028 FILLER_21_110
*1029 FILLER_21_113
*1030 FILLER_21_137
*1031 FILLER_21_144
*1032 FILLER_21_15
*1033 FILLER_21_156
*1034 FILLER_21_166
*1035 FILLER_21_169
*1036 FILLER_21_180
*1037 FILLER_21_192
*1038 FILLER_21_204
*1039 FILLER_21_214
*1040 FILLER_21_222
*1041 FILLER_21_225
*1042 FILLER_21_238
*1043 FILLER_21_262
*1044 FILLER_21_27
*1045 FILLER_21_272
*1046 FILLER_21_281
*1047 FILLER_21_286
*1048 FILLER_21_294
*1049 FILLER_21_3
*1050 FILLER_21_317
*1051 FILLER_21_54
*1052 FILLER_21_57
*1053 FILLER_21_66
*1054 FILLER_21_78
*1055 FILLER_21_90
*1056 FILLER_22_103
*1057 FILLER_22_108
*1058 FILLER_22_121
*1059 FILLER_22_133
*1060 FILLER_22_139
*1061 FILLER_22_141
*1062 FILLER_22_146
*1063 FILLER_22_15
*1064 FILLER_22_166
*1065 FILLER_22_178
*1066 FILLER_22_190
*1067 FILLER_22_197
*1068 FILLER_22_217
*1069 FILLER_22_227
*1070 FILLER_22_239
*1071 FILLER_22_251
*1072 FILLER_22_253
*1073 FILLER_22_262
*1074 FILLER_22_27
*1075 FILLER_22_274
*1076 FILLER_22_282
*1077 FILLER_22_287
*1078 FILLER_22_29
*1079 FILLER_22_294
*1080 FILLER_22_3
*1081 FILLER_22_301
*1082 FILLER_22_307
*1083 FILLER_22_309
*1084 FILLER_22_318
*1085 FILLER_22_35
*1086 FILLER_22_39
*1087 FILLER_22_66
*1088 FILLER_22_73
*1089 FILLER_22_81
*1090 FILLER_22_85
*1091 FILLER_22_95
*1092 FILLER_23_103
*1093 FILLER_23_110
*1094 FILLER_23_113
*1095 FILLER_23_140
*1096 FILLER_23_148
*1097 FILLER_23_15
*1098 FILLER_23_156
*1099 FILLER_23_169
*1100 FILLER_23_180
*1101 FILLER_23_188
*1102 FILLER_23_195
*1103 FILLER_23_206
*1104 FILLER_23_218
*1105 FILLER_23_225
*1106 FILLER_23_235
*1107 FILLER_23_239
*1108 FILLER_23_256
*1109 FILLER_23_260
*1110 FILLER_23_268
*1111 FILLER_23_27
*1112 FILLER_23_281
*1113 FILLER_23_289
*1114 FILLER_23_3
*1115 FILLER_23_312
*1116 FILLER_23_39
*1117 FILLER_23_54
*1118 FILLER_23_57
*1119 FILLER_23_79
*1120 FILLER_23_91
*1121 FILLER_24_105
*1122 FILLER_24_117
*1123 FILLER_24_125
*1124 FILLER_24_131
*1125 FILLER_24_138
*1126 FILLER_24_141
*1127 FILLER_24_15
*1128 FILLER_24_153
*1129 FILLER_24_165
*1130 FILLER_24_184
*1131 FILLER_24_197
*1132 FILLER_24_202
*1133 FILLER_24_214
*1134 FILLER_24_222
*1135 FILLER_24_229
*1136 FILLER_24_250
*1137 FILLER_24_253
*1138 FILLER_24_27
*1139 FILLER_24_271
*1140 FILLER_24_283
*1141 FILLER_24_289
*1142 FILLER_24_29
*1143 FILLER_24_3
*1144 FILLER_24_306
*1145 FILLER_24_309
*1146 FILLER_24_317
*1147 FILLER_24_41
*1148 FILLER_24_46
*1149 FILLER_24_54
*1150 FILLER_24_71
*1151 FILLER_24_83
*1152 FILLER_24_85
*1153 FILLER_25_102
*1154 FILLER_25_109
*1155 FILLER_25_113
*1156 FILLER_25_117
*1157 FILLER_25_121
*1158 FILLER_25_149
*1159 FILLER_25_15
*1160 FILLER_25_158
*1161 FILLER_25_165
*1162 FILLER_25_169
*1163 FILLER_25_181
*1164 FILLER_25_187
*1165 FILLER_25_204
*1166 FILLER_25_216
*1167 FILLER_25_225
*1168 FILLER_25_237
*1169 FILLER_25_247
*1170 FILLER_25_260
*1171 FILLER_25_272
*1172 FILLER_25_281
*1173 FILLER_25_293
*1174 FILLER_25_3
*1175 FILLER_25_315
*1176 FILLER_25_319
*1177 FILLER_25_40
*1178 FILLER_25_52
*1179 FILLER_25_57
*1180 FILLER_25_74
*1181 FILLER_25_94
*1182 FILLER_26_108
*1183 FILLER_26_125
*1184 FILLER_26_138
*1185 FILLER_26_141
*1186 FILLER_26_15
*1187 FILLER_26_150
*1188 FILLER_26_156
*1189 FILLER_26_166
*1190 FILLER_26_175
*1191 FILLER_26_187
*1192 FILLER_26_19
*1193 FILLER_26_195
*1194 FILLER_26_197
*1195 FILLER_26_208
*1196 FILLER_26_220
*1197 FILLER_26_232
*1198 FILLER_26_244
*1199 FILLER_26_253
*1200 FILLER_26_265
*1201 FILLER_26_27
*1202 FILLER_26_271
*1203 FILLER_26_29
*1204 FILLER_26_293
*1205 FILLER_26_297
*1206 FILLER_26_3
*1207 FILLER_26_301
*1208 FILLER_26_307
*1209 FILLER_26_309
*1210 FILLER_26_314
*1211 FILLER_26_40
*1212 FILLER_26_52
*1213 FILLER_26_61
*1214 FILLER_26_73
*1215 FILLER_26_81
*1216 FILLER_26_85
*1217 FILLER_26_96
*1218 FILLER_27_107
*1219 FILLER_27_111
*1220 FILLER_27_113
*1221 FILLER_27_132
*1222 FILLER_27_145
*1223 FILLER_27_15
*1224 FILLER_27_166
*1225 FILLER_27_169
*1226 FILLER_27_180
*1227 FILLER_27_191
*1228 FILLER_27_20
*1229 FILLER_27_200
*1230 FILLER_27_212
*1231 FILLER_27_220
*1232 FILLER_27_225
*1233 FILLER_27_240
*1234 FILLER_27_244
*1235 FILLER_27_252
*1236 FILLER_27_264
*1237 FILLER_27_27
*1238 FILLER_27_270
*1239 FILLER_27_274
*1240 FILLER_27_281
*1241 FILLER_27_296
*1242 FILLER_27_3
*1243 FILLER_27_313
*1244 FILLER_27_319
*1245 FILLER_27_54
*1246 FILLER_27_57
*1247 FILLER_27_64
*1248 FILLER_27_71
*1249 FILLER_27_83
*1250 FILLER_27_95
*1251 FILLER_28_108
*1252 FILLER_28_12
*1253 FILLER_28_135
*1254 FILLER_28_139
*1255 FILLER_28_141
*1256 FILLER_28_152
*1257 FILLER_28_178
*1258 FILLER_28_19
*1259 FILLER_28_193
*1260 FILLER_28_197
*1261 FILLER_28_205
*1262 FILLER_28_222
*1263 FILLER_28_228
*1264 FILLER_28_245
*1265 FILLER_28_251
*1266 FILLER_28_253
*1267 FILLER_28_26
*1268 FILLER_28_265
*1269 FILLER_28_273
*1270 FILLER_28_278
*1271 FILLER_28_29
*1272 FILLER_28_290
*1273 FILLER_28_3
*1274 FILLER_28_302
*1275 FILLER_28_309
*1276 FILLER_28_317
*1277 FILLER_28_53
*1278 FILLER_28_80
*1279 FILLER_28_85
*1280 FILLER_29_108
*1281 FILLER_29_113
*1282 FILLER_29_117
*1283 FILLER_29_127
*1284 FILLER_29_148
*1285 FILLER_29_152
*1286 FILLER_29_164
*1287 FILLER_29_169
*1288 FILLER_29_181