*SPEF "ieee 1481-1999"
*DESIGN "tholin_avalonsemi_tbb1143"
*DATE "11:11:11 Fri 11 11, 1111"
*VENDOR "OpenRCX"
*PROGRAM "Parallel Extraction"
*VERSION "1.0"
*DESIGN_FLOW "NAME_SCOPE LOCAL" "PIN_CAP NONE"
*DIVIDER /
*DELIMITER :
*BUS_DELIMITER []
*T_UNIT 1 NS
*C_UNIT 1 PF
*R_UNIT 1 OHM
*L_UNIT 1 HENRY

*NAME_MAP
*1 clk
*2 io_in[0]
*3 io_in[1]
*4 io_in[2]
*5 io_in[3]
*6 io_in[4]
*7 io_in[5]
*8 io_out[0]
*9 io_out[1]
*10 io_out[2]
*11 io_out[3]
*12 io_out[4]
*13 io_out[5]
*14 io_out[6]
*15 io_out[7]
*16 rst
*19 CIRCUIT_2223\.CLK
*20 CIRCUIT_2223\.GATES_1\.input1\[0\]
*21 CIRCUIT_2223\.GATES_1\.input1\[1\]
*22 CIRCUIT_2223\.GATES_1\.input1\[2\]
*23 CIRCUIT_2223\.GATES_1\.input1\[3\]
*24 CIRCUIT_2223\.GATES_11\.input2
*25 CIRCUIT_2223\.GATES_2\.input2
*26 CIRCUIT_2223\.GATES_3\.input2
*27 CIRCUIT_2223\.GATES_4\.input1\[0\]
*28 CIRCUIT_2223\.GATES_4\.input1\[1\]
*29 CIRCUIT_2223\.GATES_4\.input1\[2\]
*30 CIRCUIT_2223\.GATES_4\.input1\[3\]
*31 CIRCUIT_2223\.GATES_5\.input2
*32 CIRCUIT_2223\.MEMORY_18\.clock
*33 CIRCUIT_2223\.MEMORY_18\.d
*34 CIRCUIT_2223\.MEMORY_18\.s_currentState
*35 CIRCUIT_2223\.MEMORY_19\.d
*36 CIRCUIT_2223\.MEMORY_19\.s_currentState
*37 CIRCUIT_2223\.MEMORY_20\.d
*38 CIRCUIT_2223\.MEMORY_20\.s_currentState
*39 CIRCUIT_2223\.MEMORY_21\.d
*40 CIRCUIT_2223\.MEMORY_21\.s_currentState
*41 CIRCUIT_2223\.MEMORY_22\.d
*42 CIRCUIT_2223\.MEMORY_22\.s_currentState
*43 CIRCUIT_2223\.MEMORY_23\.s_currentState
*44 CIRCUIT_2223\.MEMORY_24\.d
*45 CIRCUIT_2223\.MEMORY_24\.s_currentState
*46 CIRCUIT_2223\.MEMORY_25\.d
*47 CIRCUIT_2223\.MEMORY_25\.s_currentState
*48 CIRCUIT_2223\.MEMORY_26\.s_currentState
*49 CIRCUIT_2223\.s_logisimNet48
*50 CIRCUIT_2223\.tone_generator_1\.GATES_1\.result
*51 CIRCUIT_2223\.tone_generator_1\.GATES_2\.result
*52 CIRCUIT_2223\.tone_generator_1\.GATES_3\.result
*53 CIRCUIT_2223\.tone_generator_1\.MEMORY_10\.s_currentState
*54 CIRCUIT_2223\.tone_generator_1\.MEMORY_11\.s_currentState
*55 CIRCUIT_2223\.tone_generator_1\.MEMORY_12\.s_currentState
*56 CIRCUIT_2223\.tone_generator_1\.MEMORY_13\.s_currentState
*57 CIRCUIT_2223\.tone_generator_1\.MEMORY_14\.s_currentState
*58 CIRCUIT_2223\.tone_generator_1\.MEMORY_15\.s_currentState
*59 CIRCUIT_2223\.tone_generator_1\.MEMORY_16\.s_currentState
*60 CIRCUIT_2223\.tone_generator_1\.MEMORY_17\.s_currentState
*61 CIRCUIT_2223\.tone_generator_1\.MEMORY_18\.s_currentState
*62 CIRCUIT_2223\.tone_generator_1\.MEMORY_19\.s_currentState
*63 CIRCUIT_2223\.tone_generator_1\.MEMORY_20\.s_currentState
*64 CIRCUIT_2223\.tone_generator_1\.MEMORY_4\.s_currentState
*65 CIRCUIT_2223\.tone_generator_1\.MEMORY_6\.s_currentState
*66 CIRCUIT_2223\.tone_generator_1\.MEMORY_7\.s_currentState
*67 CIRCUIT_2223\.tone_generator_1\.MEMORY_8\.s_currentState
*68 CIRCUIT_2223\.tone_generator_1\.MEMORY_9\.s_currentState
*69 CIRCUIT_2223\.tone_generator_1\.tone_generator_2_1\.GATES_10\.input2
*70 CIRCUIT_2223\.tone_generator_1\.tone_generator_2_1\.GATES_11\.input2
*71 CIRCUIT_2223\.tone_generator_1\.tone_generator_2_1\.GATES_12\.input2
*72 CIRCUIT_2223\.tone_generator_1\.tone_generator_2_1\.GATES_13\.input2
*73 CIRCUIT_2223\.tone_generator_1\.tone_generator_2_1\.GATES_14\.input2
*74 CIRCUIT_2223\.tone_generator_1\.tone_generator_2_1\.GATES_15\.input2
*75 CIRCUIT_2223\.tone_generator_1\.tone_generator_2_1\.GATES_16\.input2
*76 CIRCUIT_2223\.tone_generator_1\.tone_generator_2_1\.GATES_17\.input2
*77 CIRCUIT_2223\.tone_generator_1\.tone_generator_2_1\.GATES_27\.result
*78 CIRCUIT_2223\.tone_generator_1\.tone_generator_2_1\.GATES_7\.input2
*79 CIRCUIT_2223\.tone_generator_1\.tone_generator_2_1\.GATES_8\.input2
*80 CIRCUIT_2223\.tone_generator_1\.tone_generator_2_1\.GATES_9\.input2
*81 CIRCUIT_2223\.tone_generator_1\.tone_generator_2_1\.MEMORY_28\.clock
*82 CIRCUIT_2223\.tone_generator_1\.tone_generator_2_1\.MEMORY_28\.d
*83 CIRCUIT_2223\.tone_generator_1\.tone_generator_2_1\.MEMORY_28\.s_currentState
*84 CIRCUIT_2223\.tone_generator_1\.tone_generator_2_1\.MEMORY_29\.d
*85 CIRCUIT_2223\.tone_generator_1\.tone_generator_2_1\.MEMORY_29\.s_currentState
*86 CIRCUIT_2223\.tone_generator_1\.tone_generator_2_1\.MEMORY_30\.d
*87 CIRCUIT_2223\.tone_generator_1\.tone_generator_2_1\.MEMORY_30\.s_currentState
*88 CIRCUIT_2223\.tone_generator_1\.tone_generator_2_1\.MEMORY_31\.d
*89 CIRCUIT_2223\.tone_generator_1\.tone_generator_2_1\.MEMORY_31\.s_currentState
*90 CIRCUIT_2223\.tone_generator_1\.tone_generator_2_1\.MEMORY_32\.d
*91 CIRCUIT_2223\.tone_generator_1\.tone_generator_2_1\.MEMORY_32\.s_currentState
*92 CIRCUIT_2223\.tone_generator_1\.tone_generator_2_1\.MEMORY_33\.d
*93 CIRCUIT_2223\.tone_generator_1\.tone_generator_2_1\.MEMORY_33\.s_currentState
*94 CIRCUIT_2223\.tone_generator_1\.tone_generator_2_1\.MEMORY_34\.d
*95 CIRCUIT_2223\.tone_generator_1\.tone_generator_2_1\.MEMORY_34\.s_currentState
*96 CIRCUIT_2223\.tone_generator_1\.tone_generator_2_1\.MEMORY_35\.d
*97 CIRCUIT_2223\.tone_generator_1\.tone_generator_2_1\.MEMORY_35\.s_currentState
*98 CIRCUIT_2223\.tone_generator_1\.tone_generator_2_1\.MEMORY_36\.d
*99 CIRCUIT_2223\.tone_generator_1\.tone_generator_2_1\.MEMORY_36\.s_currentState
*100 CIRCUIT_2223\.tone_generator_1\.tone_generator_2_1\.MEMORY_37\.d
*101 CIRCUIT_2223\.tone_generator_1\.tone_generator_2_1\.MEMORY_37\.s_currentState
*102 CIRCUIT_2223\.tone_generator_1\.tone_generator_2_1\.MEMORY_38\.s_currentState
*103 CIRCUIT_2223\.tone_generator_1\.tone_generator_2_1\.MEMORY_39\.d
*104 CIRCUIT_2223\.tone_generator_1\.tone_generator_2_1\.MEMORY_39\.s_currentState
*105 CIRCUIT_2223\.tone_generator_2_1\.GATES_10\.input2
*106 CIRCUIT_2223\.tone_generator_2_1\.GATES_11\.input2
*107 CIRCUIT_2223\.tone_generator_2_1\.GATES_12\.input2
*108 CIRCUIT_2223\.tone_generator_2_1\.GATES_13\.input2
*109 CIRCUIT_2223\.tone_generator_2_1\.GATES_14\.input2
*110 CIRCUIT_2223\.tone_generator_2_1\.GATES_15\.input2
*111 CIRCUIT_2223\.tone_generator_2_1\.GATES_16\.input2
*112 CIRCUIT_2223\.tone_generator_2_1\.GATES_17\.input2
*113 CIRCUIT_2223\.tone_generator_2_1\.GATES_27\.result
*114 CIRCUIT_2223\.tone_generator_2_1\.GATES_7\.input2
*115 CIRCUIT_2223\.tone_generator_2_1\.GATES_8\.input2
*116 CIRCUIT_2223\.tone_generator_2_1\.GATES_9\.input2
*117 CIRCUIT_2223\.tone_generator_2_1\.MEMORY_28\.clock
*118 CIRCUIT_2223\.tone_generator_2_1\.MEMORY_28\.d
*119 CIRCUIT_2223\.tone_generator_2_1\.MEMORY_28\.s_currentState
*120 CIRCUIT_2223\.tone_generator_2_1\.MEMORY_29\.d
*121 CIRCUIT_2223\.tone_generator_2_1\.MEMORY_29\.s_currentState
*122 CIRCUIT_2223\.tone_generator_2_1\.MEMORY_30\.d
*123 CIRCUIT_2223\.tone_generator_2_1\.MEMORY_30\.s_currentState
*124 CIRCUIT_2223\.tone_generator_2_1\.MEMORY_31\.d
*125 CIRCUIT_2223\.tone_generator_2_1\.MEMORY_31\.s_currentState
*126 CIRCUIT_2223\.tone_generator_2_1\.MEMORY_32\.d
*127 CIRCUIT_2223\.tone_generator_2_1\.MEMORY_32\.s_currentState
*128 CIRCUIT_2223\.tone_generator_2_1\.MEMORY_33\.d
*129 CIRCUIT_2223\.tone_generator_2_1\.MEMORY_33\.s_currentState
*130 CIRCUIT_2223\.tone_generator_2_1\.MEMORY_34\.d
*131 CIRCUIT_2223\.tone_generator_2_1\.MEMORY_34\.s_currentState
*132 CIRCUIT_2223\.tone_generator_2_1\.MEMORY_35\.d
*133 CIRCUIT_2223\.tone_generator_2_1\.MEMORY_35\.s_currentState
*134 CIRCUIT_2223\.tone_generator_2_1\.MEMORY_36\.d
*135 CIRCUIT_2223\.tone_generator_2_1\.MEMORY_36\.s_currentState
*136 CIRCUIT_2223\.tone_generator_2_1\.MEMORY_37\.d
*137 CIRCUIT_2223\.tone_generator_2_1\.MEMORY_37\.s_currentState
*138 CIRCUIT_2223\.tone_generator_2_1\.MEMORY_38\.s_currentState
*139 CIRCUIT_2223\.tone_generator_2_1\.MEMORY_39\.d
*140 CIRCUIT_2223\.tone_generator_2_1\.MEMORY_39\.s_currentState
*141 CIRCUIT_2223\.tone_generator_2_2\.GATES_10\.input2
*142 CIRCUIT_2223\.tone_generator_2_2\.GATES_11\.input2
*143 CIRCUIT_2223\.tone_generator_2_2\.GATES_12\.input2
*144 CIRCUIT_2223\.tone_generator_2_2\.GATES_13\.input2
*145 CIRCUIT_2223\.tone_generator_2_2\.GATES_14\.input2
*146 CIRCUIT_2223\.tone_generator_2_2\.GATES_15\.input2
*147 CIRCUIT_2223\.tone_generator_2_2\.GATES_16\.input2
*148 CIRCUIT_2223\.tone_generator_2_2\.GATES_17\.input2
*149 CIRCUIT_2223\.tone_generator_2_2\.GATES_27\.result
*150 CIRCUIT_2223\.tone_generator_2_2\.GATES_7\.input2
*151 CIRCUIT_2223\.tone_generator_2_2\.GATES_8\.input2
*152 CIRCUIT_2223\.tone_generator_2_2\.GATES_9\.input2
*153 CIRCUIT_2223\.tone_generator_2_2\.MEMORY_28\.clock
*154 CIRCUIT_2223\.tone_generator_2_2\.MEMORY_28\.d
*155 CIRCUIT_2223\.tone_generator_2_2\.MEMORY_28\.s_currentState
*156 CIRCUIT_2223\.tone_generator_2_2\.MEMORY_29\.d
*157 CIRCUIT_2223\.tone_generator_2_2\.MEMORY_29\.s_currentState
*158 CIRCUIT_2223\.tone_generator_2_2\.MEMORY_30\.d
*159 CIRCUIT_2223\.tone_generator_2_2\.MEMORY_30\.s_currentState
*160 CIRCUIT_2223\.tone_generator_2_2\.MEMORY_31\.d
*161 CIRCUIT_2223\.tone_generator_2_2\.MEMORY_31\.s_currentState
*162 CIRCUIT_2223\.tone_generator_2_2\.MEMORY_32\.d
*163 CIRCUIT_2223\.tone_generator_2_2\.MEMORY_32\.s_currentState
*164 CIRCUIT_2223\.tone_generator_2_2\.MEMORY_33\.d
*165 CIRCUIT_2223\.tone_generator_2_2\.MEMORY_33\.s_currentState
*166 CIRCUIT_2223\.tone_generator_2_2\.MEMORY_34\.d
*167 CIRCUIT_2223\.tone_generator_2_2\.MEMORY_34\.s_currentState
*168 CIRCUIT_2223\.tone_generator_2_2\.MEMORY_35\.d
*169 CIRCUIT_2223\.tone_generator_2_2\.MEMORY_35\.s_currentState
*170 CIRCUIT_2223\.tone_generator_2_2\.MEMORY_36\.d
*171 CIRCUIT_2223\.tone_generator_2_2\.MEMORY_36\.s_currentState
*172 CIRCUIT_2223\.tone_generator_2_2\.MEMORY_37\.d
*173 CIRCUIT_2223\.tone_generator_2_2\.MEMORY_37\.s_currentState
*174 CIRCUIT_2223\.tone_generator_2_2\.MEMORY_38\.s_currentState
*175 CIRCUIT_2223\.tone_generator_2_2\.MEMORY_39\.d
*176 CIRCUIT_2223\.tone_generator_2_2\.MEMORY_39\.s_currentState
*177 CIRCUIT_2223\.triangle_wave_generator_1\.GATES_10\.input2
*178 CIRCUIT_2223\.triangle_wave_generator_1\.GATES_11\.input2
*179 CIRCUIT_2223\.triangle_wave_generator_1\.GATES_12\.input2
*180 CIRCUIT_2223\.triangle_wave_generator_1\.GATES_13\.input2
*181 CIRCUIT_2223\.triangle_wave_generator_1\.GATES_14\.input2
*182 CIRCUIT_2223\.triangle_wave_generator_1\.GATES_15\.input2
*183 CIRCUIT_2223\.triangle_wave_generator_1\.GATES_16\.input2
*184 CIRCUIT_2223\.triangle_wave_generator_1\.GATES_17\.input2
*185 CIRCUIT_2223\.triangle_wave_generator_1\.GATES_27\.result
*186 CIRCUIT_2223\.triangle_wave_generator_1\.GATES_7\.input2
*187 CIRCUIT_2223\.triangle_wave_generator_1\.GATES_8\.input2
*188 CIRCUIT_2223\.triangle_wave_generator_1\.GATES_9\.input2
*189 CIRCUIT_2223\.triangle_wave_generator_1\.MEMORY_28\.clock
*190 CIRCUIT_2223\.triangle_wave_generator_1\.MEMORY_28\.d
*191 CIRCUIT_2223\.triangle_wave_generator_1\.MEMORY_28\.s_currentState
*192 CIRCUIT_2223\.triangle_wave_generator_1\.MEMORY_29\.d
*193 CIRCUIT_2223\.triangle_wave_generator_1\.MEMORY_29\.s_currentState
*194 CIRCUIT_2223\.triangle_wave_generator_1\.MEMORY_30\.d
*195 CIRCUIT_2223\.triangle_wave_generator_1\.MEMORY_30\.s_currentState
*196 CIRCUIT_2223\.triangle_wave_generator_1\.MEMORY_31\.d
*197 CIRCUIT_2223\.triangle_wave_generator_1\.MEMORY_31\.s_currentState
*198 CIRCUIT_2223\.triangle_wave_generator_1\.MEMORY_32\.d
*199 CIRCUIT_2223\.triangle_wave_generator_1\.MEMORY_32\.s_currentState
*200 CIRCUIT_2223\.triangle_wave_generator_1\.MEMORY_33\.d
*201 CIRCUIT_2223\.triangle_wave_generator_1\.MEMORY_33\.s_currentState
*202 CIRCUIT_2223\.triangle_wave_generator_1\.MEMORY_34\.d
*203 CIRCUIT_2223\.triangle_wave_generator_1\.MEMORY_34\.s_currentState
*204 CIRCUIT_2223\.triangle_wave_generator_1\.MEMORY_35\.d
*205 CIRCUIT_2223\.triangle_wave_generator_1\.MEMORY_35\.s_currentState
*206 CIRCUIT_2223\.triangle_wave_generator_1\.MEMORY_36\.d
*207 CIRCUIT_2223\.triangle_wave_generator_1\.MEMORY_36\.s_currentState
*208 CIRCUIT_2223\.triangle_wave_generator_1\.MEMORY_37\.d
*209 CIRCUIT_2223\.triangle_wave_generator_1\.MEMORY_37\.s_currentState
*210 CIRCUIT_2223\.triangle_wave_generator_1\.MEMORY_38\.s_currentState
*211 CIRCUIT_2223\.triangle_wave_generator_1\.MEMORY_39\.d
*212 CIRCUIT_2223\.triangle_wave_generator_1\.MEMORY_39\.s_currentState
*213 CIRCUIT_2223\.triangle_wave_generator_1\.MEMORY_40\.clock
*214 CIRCUIT_2223\.triangle_wave_generator_1\.MEMORY_40\.d
*215 CIRCUIT_2223\.triangle_wave_generator_1\.MEMORY_40\.s_currentState
*216 CIRCUIT_2223\.triangle_wave_generator_1\.MEMORY_41\.clock
*217 CIRCUIT_2223\.triangle_wave_generator_1\.MEMORY_41\.s_currentState
*218 CIRCUIT_2223\.triangle_wave_generator_1\.MEMORY_42\.s_currentState
*219 _000_
*220 _001_
*221 _002_
*222 _003_
*223 _004_
*224 _005_
*225 _006_
*226 _007_
*227 _008_
*228 _009_
*229 _010_
*230 _011_
*231 _012_
*232 _013_
*233 _014_
*234 _015_
*235 _016_
*236 _017_
*237 _018_
*238 _019_
*239 _020_
*240 _021_
*241 _022_
*242 _023_
*243 _024_
*244 _025_
*245 _026_
*246 _027_
*247 _028_
*248 _029_
*249 _030_
*250 _031_
*251 _032_
*252 _033_
*253 _034_
*254 _035_
*255 _036_
*256 _037_
*257 _038_
*258 _039_
*259 _040_
*260 _041_
*261 _042_
*262 _043_
*263 _044_
*264 _045_
*265 _046_
*266 _047_
*267 _048_
*268 _049_
*269 _050_
*270 _051_
*271 _052_
*272 _053_
*273 _054_
*274 _055_
*275 _056_
*276 _057_
*277 _058_
*278 _059_
*279 _060_
*280 _061_
*281 _062_
*282 _063_
*283 _064_
*284 _065_
*285 _066_
*286 _067_
*287 _068_
*288 _069_
*289 _070_
*290 _071_
*291 _072_
*292 _073_
*293 _074_
*294 _075_
*295 _076_
*296 _077_
*297 _078_
*298 _079_
*299 _080_
*300 _081_
*301 _082_
*302 _083_
*303 _084_
*304 _085_
*305 _086_
*306 _087_
*307 _088_
*308 _089_
*309 _090_
*310 _091_
*311 _092_
*312 _093_
*313 _094_
*314 _095_
*315 _096_
*316 _097_
*317 _098_
*318 _099_
*319 _100_
*320 _101_
*321 _102_
*322 _103_
*323 _104_
*324 _105_
*325 _106_
*326 _107_
*327 _108_
*328 _109_
*329 _110_
*330 _111_
*331 _112_
*332 _113_
*333 _114_
*334 _115_
*335 _116_
*336 _117_
*337 _118_
*338 _119_
*339 _120_
*340 _121_
*341 _122_
*342 _123_
*343 _124_
*344 _125_
*345 _126_
*346 _127_
*347 _128_
*348 _129_
*349 _130_
*350 _131_
*351 _132_
*352 _133_
*353 _134_
*354 _135_
*355 _136_
*356 _137_
*357 _138_
*358 _139_
*359 _140_
*360 _141_
*361 _142_
*362 _143_
*363 _144_
*364 _145_
*365 _146_
*366 _147_
*367 _148_
*368 _149_
*369 _150_
*370 _151_
*371 _152_
*372 _153_
*373 _154_
*374 _155_
*375 _156_
*376 _157_
*377 _158_
*378 _159_
*379 _160_
*380 _161_
*381 _162_
*382 _163_
*383 _164_
*384 _165_
*385 _166_
*386 _167_
*387 _168_
*388 _169_
*389 _170_
*390 _171_
*391 _172_
*392 _173_
*393 _174_
*394 _175_
*395 _176_
*396 _177_
*397 _178_
*398 _179_
*399 _180_
*400 _181_
*401 _182_
*402 _183_
*403 _184_
*404 _185_
*405 _186_
*406 _187_
*407 _188_
*408 _189_
*409 _190_
*410 _191_
*411 _192_
*412 _193_
*413 _194_
*414 _195_
*415 _196_
*416 _197_
*417 _198_
*418 _199_
*419 _200_
*420 _201_
*421 _202_
*422 _203_
*423 _204_
*424 _205_
*425 _206_
*426 _207_
*427 _208_
*428 _209_
*429 _210_
*430 _211_
*431 _212_
*432 _213_
*433 _214_
*434 _215_
*435 _216_
*436 _217_
*437 _218_
*438 _219_
*439 _220_
*440 _221_
*441 _222_
*442 _223_
*443 _224_
*444 _225_
*445 _226_
*446 _227_
*447 _228_
*448 _229_
*449 _230_
*450 _231_
*451 _232_
*452 _233_
*453 _234_
*454 _235_
*455 _236_
*456 _237_
*457 _238_
*458 _239_
*459 _240_
*460 _241_
*461 _242_
*462 _243_
*463 _244_
*464 _245_
*465 _246_
*466 _247_
*467 _248_
*468 _249_
*469 _250_
*470 _251_
*471 _252_
*472 _253_
*473 _254_
*474 _255_
*475 _256_
*476 _257_
*477 _258_
*478 _259_
*479 _260_
*480 _261_
*481 _262_
*482 _263_
*483 _264_
*484 _265_
*485 _266_
*486 _267_
*487 _268_
*488 _269_
*489 _270_
*490 _271_
*491 _272_
*492 _273_
*493 _274_
*494 _275_
*495 _276_
*496 _277_
*497 _278_
*498 _279_
*499 _280_
*500 _281_
*501 _282_
*502 _283_
*503 _284_
*504 _285_
*505 _286_
*506 _287_
*507 _288_
*508 _289_
*509 _290_
*510 _291_
*511 _292_
*512 _293_
*513 _294_
*514 _295_
*515 _296_
*516 _297_
*517 _298_
*518 _299_
*519 _300_
*520 _301_
*521 _302_
*522 _303_
*523 _304_
*524 _305_
*525 _306_
*526 _307_
*527 clknet_0__183_
*528 clknet_0__203_
*529 clknet_0__222_
*530 clknet_0__245_
*531 clknet_0__264_
*532 clknet_0_clk
*533 clknet_1_0__leaf__183_
*534 clknet_1_0__leaf__203_
*535 clknet_1_0__leaf__222_
*536 clknet_1_0__leaf__245_
*537 clknet_1_0__leaf__264_
*538 clknet_1_0__leaf_clk
*539 clknet_1_1__leaf__183_
*540 clknet_1_1__leaf__203_
*541 clknet_1_1__leaf__222_
*542 clknet_1_1__leaf__245_
*543 clknet_1_1__leaf__264_
*544 clknet_1_1__leaf_clk
*545 net1
*546 net10
*547 net11
*548 net12
*549 net13
*550 net14
*551 net15
*552 net16
*553 net17
*554 net18
*555 net19
*556 net2
*557 net20
*558 net21
*559 net22
*560 net23
*561 net24
*562 net25
*563 net26
*564 net27
*565 net28
*566 net29
*567 net3
*568 net30
*569 net31
*570 net32
*571 net33
*572 net34
*573 net35
*574 net36
*575 net37
*576 net38
*577 net39
*578 net4
*579 net40
*580 net41
*581 net42
*582 net43
*583 net44
*584 net45
*585 net5
*586 net6
*587 net7
*588 net8
*589 net9
*590 slow_clock\[0\]
*591 slow_clock\[1\]
*592 slow_clock\[2\]
*593 slow_clock\[3\]
*594 slow_clock\[4\]
*595 slow_clock\[5\]
*596 slow_clock\[6\]
*597 FILLER_0_109
*598 FILLER_0_113
*599 FILLER_0_121
*600 FILLER_0_138
*601 FILLER_0_141
*602 FILLER_0_15
*603 FILLER_0_153
*604 FILLER_0_165
*605 FILLER_0_169
*606 FILLER_0_181
*607 FILLER_0_193
*608 FILLER_0_197
*609 FILLER_0_209
*610 FILLER_0_221
*611 FILLER_0_225
*612 FILLER_0_237
*613 FILLER_0_249
*614 FILLER_0_253
*615 FILLER_0_265
*616 FILLER_0_27
*617 FILLER_0_277
*618 FILLER_0_281
*619 FILLER_0_289
*620 FILLER_0_29
*621 FILLER_0_297
*622 FILLER_0_3
*623 FILLER_0_41
*624 FILLER_0_53
*625 FILLER_0_57
*626 FILLER_0_65
*627 FILLER_0_69
*628 FILLER_0_81
*629 FILLER_0_85
*630 FILLER_0_97
*631 FILLER_10_121
*632 FILLER_10_133
*633 FILLER_10_138
*634 FILLER_10_141
*635 FILLER_10_164
*636 FILLER_10_18
*637 FILLER_10_181
*638 FILLER_10_193
*639 FILLER_10_197
*640 FILLER_10_205
*641 FILLER_10_225
*642 FILLER_10_25
*643 FILLER_10_250
*644 FILLER_10_253
*645 FILLER_10_258
*646 FILLER_10_270
*647 FILLER_10_280
*648 FILLER_10_29
*649 FILLER_10_291
*650 FILLER_10_3
*651 FILLER_10_57
*652 FILLER_10_81
*653 FILLER_10_85
*654 FILLER_10_93
*655 FILLER_11_101
*656 FILLER_11_107
*657 FILLER_11_11
*658 FILLER_11_111
*659 FILLER_11_113
*660 FILLER_11_118
*661 FILLER_11_130
*662 FILLER_11_137
*663 FILLER_11_162
*664 FILLER_11_169
*665 FILLER_11_192
*666 FILLER_11_204
*667 FILLER_11_216
*668 FILLER_11_225
*669 FILLER_11_233
*670 FILLER_11_257
*671 FILLER_11_269
*672 FILLER_11_277
*673 FILLER_11_281
*674 FILLER_11_290
*675 FILLER_11_298
*676 FILLER_11_3
*677 FILLER_11_34
*678 FILLER_11_46
*679 FILLER_11_54
*680 FILLER_11_57
*681 FILLER_11_77
*682 FILLER_11_89
*683 FILLER_12_103
*684 FILLER_12_107
*685 FILLER_12_11
*686 FILLER_12_117
*687 FILLER_12_129
*688 FILLER_12_137
*689 FILLER_12_141
*690 FILLER_12_156
*691 FILLER_12_160
*692 FILLER_12_164
*693 FILLER_12_170
*694 FILLER_12_187
*695 FILLER_12_194
*696 FILLER_12_197
*697 FILLER_12_212
*698 FILLER_12_224
*699 FILLER_12_232
*700 FILLER_12_237
*701 FILLER_12_250
*702 FILLER_12_253
*703 FILLER_12_26
*704 FILLER_12_265
*705 FILLER_12_277
*706 FILLER_12_287
*707 FILLER_12_29
*708 FILLER_12_297
*709 FILLER_12_3
*710 FILLER_12_41
*711 FILLER_12_53
*712 FILLER_12_68
*713 FILLER_12_80
*714 FILLER_12_85
*715 FILLER_12_94
*716 FILLER_13_107
*717 FILLER_13_111
*718 FILLER_13_113
*719 FILLER_13_125
*720 FILLER_13_137
*721 FILLER_13_145
*722 FILLER_13_15
*723 FILLER_13_151
*724 FILLER_13_163
*725 FILLER_13_167
*726 FILLER_13_169
*727 FILLER_13_175
*728 FILLER_13_179
*729 FILLER_13_19
*730 FILLER_13_191
*731 FILLER_13_215
*732 FILLER_13_223
*733 FILLER_13_225
*734 FILLER_13_237
*735 FILLER_13_249
*736 FILLER_13_261
*737 FILLER_13_273
*738 FILLER_13_278
*739 FILLER_13_281
*740 FILLER_13_289
*741 FILLER_13_297
*742 FILLER_13_3
*743 FILLER_13_31
*744 FILLER_13_40
*745 FILLER_13_52
*746 FILLER_13_57
*747 FILLER_13_69
*748 FILLER_13_81
*749 FILLER_13_89
*750 FILLER_13_95
*751 FILLER_14_11
*752 FILLER_14_112
*753 FILLER_14_125
*754 FILLER_14_137
*755 FILLER_14_141
*756 FILLER_14_15
*757 FILLER_14_153
*758 FILLER_14_165
*759 FILLER_14_183
*760 FILLER_14_194
*761 FILLER_14_197
*762 FILLER_14_204
*763 FILLER_14_229
*764 FILLER_14_250
*765 FILLER_14_253
*766 FILLER_14_265
*767 FILLER_14_27
*768 FILLER_14_277
*769 FILLER_14_281
*770 FILLER_14_289
*771 FILLER_14_29
*772 FILLER_14_297
*773 FILLER_14_3
*774 FILLER_14_44
*775 FILLER_14_50
*776 FILLER_14_58
*777 FILLER_14_79
*778 FILLER_14_83
*779 FILLER_14_85
*780 FILLER_14_93
*781 FILLER_15_100
*782 FILLER_15_11
*783 FILLER_15_113
*784 FILLER_15_125
*785 FILLER_15_131
*786 FILLER_15_148
*787 FILLER_15_16
*788 FILLER_15_160
*789 FILLER_15_169
*790 FILLER_15_180
*791 FILLER_15_192
*792 FILLER_15_198
*793 FILLER_15_222
*794 FILLER_15_225
*795 FILLER_15_23
*796 FILLER_15_233
*797 FILLER_15_257
*798 FILLER_15_269
*799 FILLER_15_277
*800 FILLER_15_281
*801 FILLER_15_289
*802 FILLER_15_297
*803 FILLER_15_3
*804 FILLER_15_48
*805 FILLER_15_57
*806 FILLER_15_88
*807 FILLER_16_102
*808 FILLER_16_107
*809 FILLER_16_117
*810 FILLER_16_129
*811 FILLER_16_137
*812 FILLER_16_141
*813 FILLER_16_152
*814 FILLER_16_164
*815 FILLER_16_175
*816 FILLER_16_187
*817 FILLER_16_195
*818 FILLER_16_197
*819 FILLER_16_205
*820 FILLER_16_209
*821 FILLER_16_213
*822 FILLER_16_237
*823 FILLER_16_244
*824 FILLER_16_253
*825 FILLER_16_259
*826 FILLER_16_26
*827 FILLER_16_265
*828 FILLER_16_279
*829 FILLER_16_29
*830 FILLER_16_291
*831 FILLER_16_3
*832 FILLER_16_49
*833 FILLER_16_64
*834 FILLER_16_71
*835 FILLER_16_75
*836 FILLER_16_79
*837 FILLER_16_83
*838 FILLER_16_85
*839 FILLER_16_94
*840 FILLER_17_100
*841 FILLER_17_11
*842 FILLER_17_110
*843 FILLER_17_113
*844 FILLER_17_138
*845 FILLER_17_146
*846 FILLER_17_156
*847 FILLER_17_169
*848 FILLER_17_187
*849 FILLER_17_195
*850 FILLER_17_205
*851 FILLER_17_222
*852 FILLER_17_225
*853 FILLER_17_233
*854 FILLER_17_243
*855 FILLER_17_25
*856 FILLER_17_250
*857 FILLER_17_256
*858 FILLER_17_278
*859 FILLER_17_281
*860 FILLER_17_296
*861 FILLER_17_3
*862 FILLER_17_47
*863 FILLER_17_55
*864 FILLER_17_57
*865 FILLER_17_68
*866 FILLER_17_80
*867 FILLER_17_92
*868 FILLER_18_104
*869 FILLER_18_111
*870 FILLER_18_120
*871 FILLER_18_128
*872 FILLER_18_135
*873 FILLER_18_139
*874 FILLER_18_141
*875 FILLER_18_15
*876 FILLER_18_152
*877 FILLER_18_159
*878 FILLER_18_167
*879 FILLER_18_176
*880 FILLER_18_188
*881 FILLER_18_197
*882 FILLER_18_208
*883 FILLER_18_219
*884 FILLER_18_231
*885 FILLER_18_243
*886 FILLER_18_251
*887 FILLER_18_253
*888 FILLER_18_268
*889 FILLER_18_27
*890 FILLER_18_274
*891 FILLER_18_29
*892 FILLER_18_296
*893 FILLER_18_3
*894 FILLER_18_40
*895 FILLER_18_48
*896 FILLER_18_66
*897 FILLER_18_78
*898 FILLER_18_85
*899 FILLER_18_96
*900 FILLER_19_107
*901 FILLER_19_111
*902 FILLER_19_113
*903 FILLER_19_125
*904 FILLER_19_149
*905 FILLER_19_160
*906 FILLER_19_169
*907 FILLER_19_180
*908 FILLER_19_192
*909 FILLER_19_209
*910 FILLER_19_215
*911 FILLER_19_222
*912 FILLER_19_225
*913 FILLER_19_229
*914 FILLER_19_246
*915 FILLER_19_258
*916 FILLER_19_270
*917 FILLER_19_277
*918 FILLER_19_28
*919 FILLER_19_281
*920 FILLER_19_286
*921 FILLER_19_290
*922 FILLER_19_297
*923 FILLER_19_3
*924 FILLER_19_48
*925 FILLER_19_57
*926 FILLER_19_68
*927 FILLER_19_96
*928 FILLER_1_107
*929 FILLER_1_111
*930 FILLER_1_113
*931 FILLER_1_141
*932 FILLER_1_149
*933 FILLER_1_15
*934 FILLER_1_166
*935 FILLER_1_169
*936 FILLER_1_177
*937 FILLER_1_195
*938 FILLER_1_206
*939 FILLER_1_218
*940 FILLER_1_225
*941 FILLER_1_248
*942 FILLER_1_268
*943 FILLER_1_27
*944 FILLER_1_275
*945 FILLER_1_279
*946 FILLER_1_281
*947 FILLER_1_286
*948 FILLER_1_298
*949 FILLER_1_3
*950 FILLER_1_33
*951 FILLER_1_54
*952 FILLER_1_57
*953 FILLER_1_80
*954 FILLER_1_92
*955 FILLER_20_103
*956 FILLER_20_111
*957 FILLER_20_121
*958 FILLER_20_130
*959 FILLER_20_138
*960 FILLER_20_141
*961 FILLER_20_145
*962 FILLER_20_15
*963 FILLER_20_151
*964 FILLER_20_175
*965 FILLER_20_187
*966 FILLER_20_195
*967 FILLER_20_197
*968 FILLER_20_207
*969 FILLER_20_219
*970 FILLER_20_22
*971 FILLER_20_227
*972 FILLER_20_235
*973 FILLER_20_248
*974 FILLER_20_253
*975 FILLER_20_262
*976 FILLER_20_270
*977 FILLER_20_29
*978 FILLER_20_294
*979 FILLER_20_298
*980 FILLER_20_3
*981 FILLER_20_55
*982 FILLER_20_75
*983 FILLER_20_8
*984 FILLER_20_83
*985 FILLER_20_85
*986 FILLER_20_96
*987 FILLER_21_110
*988 FILLER_21_113
*989 FILLER_21_119
*990 FILLER_21_129
*991 FILLER_21_149
*992 FILLER_21_155
*993 FILLER_21_164
*994 FILLER_21_169
*995 FILLER_21_175
*996 FILLER_21_181
*997 FILLER_21_188
*998 FILLER_21_200
*999 FILLER_21_208
*1000 FILLER_21_222
*1001 FILLER_21_225
*1002 FILLER_21_233
*1003 FILLER_21_252
*1004 FILLER_21_264
*1005 FILLER_21_272
*1006 FILLER_21_276
*1007 FILLER_21_281
*1008 FILLER_21_296
*1009 FILLER_21_3
*1010 FILLER_21_33
*1011 FILLER_21_39
*1012 FILLER_21_43
*1013 FILLER_21_50
*1014 FILLER_21_57
*1015 FILLER_21_62
*1016 FILLER_21_9
*1017 FILLER_21_95
*1018 FILLER_22_118
*1019 FILLER_22_12
*1020 FILLER_22_125
*1021 FILLER_22_138
*1022 FILLER_22_141
*1023 FILLER_22_152
*1024 FILLER_22_161
*1025 FILLER_22_173
*1026 FILLER_22_185
*1027 FILLER_22_19
*1028 FILLER_22_193
*1029 FILLER_22_197
*1030 FILLER_22_232
*1031 FILLER_22_244
*1032 FILLER_22_253
*1033 FILLER_22_26
*1034 FILLER_22_265
*1035 FILLER_22_288
*1036 FILLER_22_29
*1037 FILLER_22_296
*1038 FILLER_22_3
*1039 FILLER_22_41
*1040 FILLER_22_45
*1041 FILLER_22_72
*1042 FILLER_22_79
*1043 FILLER_22_83
*1044 FILLER_22_85
*1045 FILLER_22_97
*1046 FILLER_23_110
*1047 FILLER_23_113
*1048 FILLER_23_125
*1049 FILLER_23_144
*1050 FILLER_23_159
*1051 FILLER_23_167
*1052 FILLER_23_169
*1053 FILLER_23_181
*1054 FILLER_23_191
*1055 FILLER_23_202
*1056 FILLER_23_210
*1057 FILLER_23_214
*1058 FILLER_23_221
*1059 FILLER_23_225
*1060 FILLER_23_237
*1061 FILLER_23_249
*1062 FILLER_23_257
*1063 FILLER_23_261
*1064 FILLER_23_278
*1065 FILLER_23_281
*1066 FILLER_23_286
*1067 FILLER_23_298
*1068 FILLER_23_3
*1069 FILLER_23_32
*1070 FILLER_23_45
*1071 FILLER_23_53
*1072 FILLER_23_57
*1073 FILLER_23_62
*1074 FILLER_23_68
*1075 FILLER_23_72
*1076 FILLER_23_84
*1077 FILLER_23_92
*1078 FILLER_24_10
*1079 FILLER_24_114
*1080 FILLER_24_122
*1081 FILLER_24_132
*1082 FILLER_24_141
*1083 FILLER_24_163
*1084 FILLER_24_17
*1085 FILLER_24_183
*1086 FILLER_24_195
*1087 FILLER_24_197
*1088 FILLER_24_205
*1089 FILLER_24_21
*1090 FILLER_24_213
*1091 FILLER_24_225
*1092 FILLER_24_233
*1093 FILLER_24_238
*1094 FILLER_24_25
*1095 FILLER_24_250
*1096 FILLER_24_253
*1097 FILLER_24_265
*1098 FILLER_24_269
*1099 FILLER_24_273
*1100 FILLER_24_285
*1101 FILLER_24_29
*1102 FILLER_24_297
*1103 FILLER_24_3
*1104 FILLER_24_41
*1105 FILLER_24_53
*1106 FILLER_24_65
*1107 FILLER_24_77
*1108 FILLER_24_83
*1109 FILLER_24_85
*1110 FILLER_24_99
*1111 FILLER_25_102
*1112 FILLER_25_110
*1113 FILLER_25_113
*1114 FILLER_25_124
*1115 FILLER_25_128
*1116 FILLER_25_149
*1117 FILLER_25_166
*1118 FILLER_25_169
*1119 FILLER_25_177
*1120 FILLER_25_194
*1121 FILLER_25_214
*1122 FILLER_25_222
*1123 FILLER_25_225
*1124 FILLER_25_234
*1125 FILLER_25_247
*1126 FILLER_25_259
*1127 FILLER_25_271
*1128 FILLER_25_279
*1129 FILLER_25_281
*1130 FILLER_25_293
*1131 FILLER_25_3
*1132 FILLER_25_33
*1133 FILLER_25_45
*1134 FILLER_25_53
*1135 FILLER_25_57
*1136 FILLER_25_72
*1137 FILLER_25_84
*1138 FILLER_25_9
*1139 FILLER_25_96
*1140 FILLER_26_108
*1141 FILLER_26_11
*1142 FILLER_26_123
*1143 FILLER_26_138
*1144 FILLER_26_141
*1145 FILLER_26_152
*1146 FILLER_26_16
*1147 FILLER_26_160
*1148 FILLER_26_172
*1149 FILLER_26_184
*1150 FILLER_26_194
*1151 FILLER_26_197
*1152 FILLER_26_209
*1153 FILLER_26_221
*1154 FILLER_26_229
*1155 FILLER_26_25
*1156 FILLER_26_250
*1157 FILLER_26_253
*1158 FILLER_26_263
*1159 FILLER_26_275
*1160 FILLER_26_281
*1161 FILLER_26_289
*1162 FILLER_26_29
*1163 FILLER_26_297
*1164 FILLER_26_3
*1165 FILLER_26_41
*1166 FILLER_26_47
*1167 FILLER_26_69
*1168 FILLER_26_81
*1169 FILLER_26_85
*1170 FILLER_26_96
*1171 FILLER_27_100
*1172 FILLER_27_113
*1173 FILLER_27_132
*1174 FILLER_27_147
*1175 FILLER_27_15
*1176 FILLER_27_156
*1177 FILLER_27_169
*1178 FILLER_27_174
*1179 FILLER_27_186
*1180 FILLER_27_19
*1181 FILLER_27_198
*1182 FILLER_27_210
*1183 FILLER_27_222
*1184 FILLER_27_225
*1185 FILLER_27_250
*1186 FILLER_27_264
*1187 FILLER_27_275
*1188 FILLER_27_279
*1189 FILLER_27_281
*1190 FILLER_27_289
*1191 FILLER_27_297
*1192 FILLER_27_3
*1193 FILLER_27_31
*1194 FILLER_27_37
*1195 FILLER_27_54
*1196 FILLER_27_57
*1197 FILLER_27_80
*1198 FILLER_28_106
*1199 FILLER_28_114
*1200 FILLER_28_133
*1201 FILLER_28_139
*1202 FILLER_28_141
*1203 FILLER_28_15
*1204 FILLER_28_152
*1205 FILLER_28_156
*1206 FILLER_28_174
*1207 FILLER_28_186
*1208 FILLER_28_194
*1209 FILLER_28_197
*1210 FILLER_28_206
*1211 FILLER_28_21
*1212 FILLER_28_218
*1213 FILLER_28_226
*1214 FILLER_28_237
*1215 FILLER_28_249
*1216 FILLER_28_253
*1217 FILLER_28_27
*1218 FILLER_28_271
*1219 FILLER_28_283
*1220 FILLER_28_29
*1221 FILLER_28_297
*1222 FILLER_28_3
*1223 FILLER_28_34
*1224 FILLER_28_49
*1225 FILLER_28_69
*1226 FILLER_28_77
*1227 FILLER_28_83
*1228 FILLER_28_85
*1229 FILLER_28_94
*1230 FILLER_29_105
*1231 FILLER_29_111
*1232 FILLER_29_113
*1233 FILLER_29_125
*1234 FILLER_29_144
*1235 FILLER_29_15
*1236 FILLER_29_151
*1237 FILLER_29_163
*1238 FILLER_29_167
*1239 FILLER_29_169
*1240 FILLER_29_178
*1241 FILLER_29_190
*1242 FILLER_29_212
*1243 FILLER_29_225
*1244 FILLER_29_237
*1245 FILLER_29_249
*1246 FILLER_29_260
*1247 FILLER_29_264
*1248 FILLER_29_278
*1249 FILLER_29_281
*1250 FILLER_29_293
*1251 FILLER_29_3
*1252 FILLER_29_36
*1253 FILLER_29_43
*1254 FILLER_29_55
*1255 FILLER_29_57
*1256 FILLER_29_62
*1257 FILLER_29_70
*1258 FILLER_29_93
*1259 FILLER_2_100
*1260 FILLER_2_125
*1261 FILLER_2_137
*1262 FILLER_2_141
*1263 FILLER_2_147
*1264 FILLER_2_15
*1265 FILLER_2_164
*1266 FILLER_2_184
*1267 FILLER_2_197
*1268 FILLER_2_206
*1269 FILLER_2_214
*1270 FILLER_2_237
*1271 FILLER_2_249
*1272 FILLER_2_253
*1273 FILLER_2_258
*1274 FILLER_2_266
*1275 FILLER_2_27
*1276 FILLER_2_285
*1277 FILLER_2_29
*1278 FILLER_2_292
*1279 FILLER_2_298
*1280 FILLER_2_3
*1281 FILLER_2_44
*1282 FILLER_2_52
*1283 FILLER_2_57
*1284 FILLER_2_82
*1285 FILLER_2_85
*1286 FILLER_30_103
*1287 FILLER_30_115
*1288 FILLER_30_127
*1289 FILLER_30_138
*1290 FILLER_30_141