*SPEF "ieee 1481-1999"
*DESIGN "tholin_avalonsemi_5401"
*DATE "11:11:11 Fri 11 11, 1111"
*VENDOR "OpenRCX"
*PROGRAM "Parallel Extraction"
*VERSION "1.0"
*DESIGN_FLOW "NAME_SCOPE LOCAL" "PIN_CAP NONE"
*DIVIDER /
*DELIMITER :
*BUS_DELIMITER []
*T_UNIT 1 NS
*C_UNIT 1 PF
*R_UNIT 1 OHM
*L_UNIT 1 HENRY

*NAME_MAP
*1 clk
*2 io_in[0]
*3 io_in[1]
*4 io_in[2]
*5 io_in[3]
*6 io_in[4]
*7 io_in[5]
*8 io_in[6]
*9 io_in[7]
*10 io_in[8]
*11 io_in[9]
*12 net38
*13 io_out[0]
*14 io_out[10]
*15 io_out[11]
*16 io_out[12]
*17 io_out[13]
*18 io_out[14]
*19 io_out[15]
*20 io_out[16]
*21 io_out[17]
*22 io_out[18]
*23 io_out[19]
*24 io_out[1]
*25 io_out[20]
*26 io_out[21]
*27 net34
*28 net35
*29 net36
*30 net37
*31 net39
*32 io_out[2]
*33 io_out[3]
*34 net28
*35 net29
*36 net30
*37 net31
*38 net32
*39 net33
*40 rst
*43 CIRCUIT_1957\.D0
*44 CIRCUIT_1957\.D1
*45 CIRCUIT_1957\.D2
*46 CIRCUIT_1957\.D3
*47 CIRCUIT_1957\.GATES_10\.result
*48 CIRCUIT_1957\.GATES_27\.result
*49 CIRCUIT_1957\.GATES_28\.result
*50 CIRCUIT_1957\.GATES_30\.result
*51 CIRCUIT_1957\.GATES_33\.input2
*52 CIRCUIT_1957\.GATES_35\.result
*53 CIRCUIT_1957\.GATES_38\.result
*54 CIRCUIT_1957\.GATES_39\.result
*55 CIRCUIT_1957\.GATES_40\.result
*56 CIRCUIT_1957\.GATES_41\.result
*57 CIRCUIT_1957\.GATES_42\.result
*58 CIRCUIT_1957\.GATES_53\.result
*59 CIRCUIT_1957\.GATES_60\.result
*60 CIRCUIT_1957\.GATES_9\.result
*61 CIRCUIT_1957\.MEMORY_62\.d
*62 CIRCUIT_1957\.MEMORY_62\.s_currentState
*63 CIRCUIT_1957\.MEMORY_63\.d
*64 CIRCUIT_1957\.MEMORY_63\.s_currentState
*65 CIRCUIT_1957\.MEMORY_64\.d
*66 CIRCUIT_1957\.MEMORY_64\.s_currentState
*67 CIRCUIT_1957\.MEMORY_65\.d
*68 CIRCUIT_1957\.MEMORY_65\.s_currentState
*69 CIRCUIT_1957\.MEMORY_66\.d
*70 CIRCUIT_1957\.MEMORY_66\.s_currentState
*71 CIRCUIT_1957\.MEMORY_67\.d
*72 CIRCUIT_1957\.MEMORY_67\.s_currentState
*73 CIRCUIT_1957\.MEMORY_68\.s_currentState
*74 CIRCUIT_1957\.MEMORY_69\.s_currentState
*75 CIRCUIT_1957\.MEMORY_70\.s_currentState
*76 CIRCUIT_1957\.MEMORY_71\.s_currentState
*77 CIRCUIT_1957\.MEMORY_72\.s_currentState
*78 CIRCUIT_1957\.MEMORY_73\.s_currentState
*79 CIRCUIT_1957\.MEMORY_74\.s_currentState
*80 CIRCUIT_1957\.MEMORY_75\.s_currentState
*81 CIRCUIT_1957\.MEMORY_76\.s_currentState
*82 CIRCUIT_1957\.MEMORY_77\.s_currentState
*83 CIRCUIT_1957\.MEMORY_78\.s_currentState
*84 CIRCUIT_1957\.MEMORY_79\.s_currentState
*85 CIRCUIT_1957\.MEMORY_80\.s_currentState
*86 CIRCUIT_1957\.MEMORY_81\.s_currentState
*87 CIRCUIT_1957\.MEMORY_82\.s_currentState
*88 CIRCUIT_1957\.MEMORY_83\.s_currentState
*89 CIRCUIT_1957\.MEMORY_84\.s_currentState
*90 CIRCUIT_1957\.MEMORY_85\.s_currentState
*91 CIRCUIT_1957\.MEMORY_86\.s_currentState
*92 CIRCUIT_1957\.MEMORY_87\.s_currentState
*93 CIRCUIT_1957\.MEMORY_88\.s_currentState
*94 CIRCUIT_1957\.clock_gen_2_1\.CLK1
*95 CIRCUIT_1957\.clock_gen_2_1\.GATES_1\.input2
*96 CIRCUIT_1957\.clock_gen_2_1\.GATES_3\.result
*97 CIRCUIT_1957\.clock_gen_2_1\.MEMORY_4\.d
*98 CIRCUIT_1957\.clock_gen_2_1\.MEMORY_4\.s_currentState
*99 CIRCUIT_1957\.clock_gen_2_1\.MEMORY_5\.d
*100 CIRCUIT_1957\.clock_gen_2_1\.MEMORY_5\.s_currentState
*101 CIRCUIT_1957\.clock_gen_2_1\.MEMORY_6\.s_currentState
*102 CIRCUIT_1957\.dest_reg_sel_new_1\.GATES_14\.input1
*103 CIRCUIT_1957\.dest_reg_sel_new_1\.GATES_14\.input2
*104 CIRCUIT_1957\.dest_reg_sel_new_1\.GATES_26\.result
*105 CIRCUIT_1957\.inst_dec_1\.MEMORY_21\.s_currentState
*106 CIRCUIT_1957\.inst_dec_1\.MEMORY_22\.s_currentState
*107 CIRCUIT_1957\.inst_dec_1\.MEMORY_23\.s_currentState
*108 CIRCUIT_1957\.inst_dec_1\.MEMORY_24\.s_currentState
*109 CIRCUIT_1957\.int_memory_1\.GATES_1\.input2\[0\]
*110 CIRCUIT_1957\.int_memory_1\.GATES_1\.input2\[1\]
*111 CIRCUIT_1957\.int_memory_1\.GATES_1\.input2\[2\]
*112 CIRCUIT_1957\.int_memory_1\.GATES_1\.input2\[3\]
*113 CIRCUIT_1957\.int_memory_1\.GATES_2\.input2\[0\]
*114 CIRCUIT_1957\.int_memory_1\.GATES_2\.input2\[1\]
*115 CIRCUIT_1957\.int_memory_1\.GATES_2\.input2\[2\]
*116 CIRCUIT_1957\.int_memory_1\.GATES_2\.input2\[3\]
*117 CIRCUIT_1957\.int_memory_1\.GATES_21\.result
*118 CIRCUIT_1957\.int_memory_1\.GATES_22\.result
*119 CIRCUIT_1957\.int_memory_1\.GATES_23\.result
*120 CIRCUIT_1957\.int_memory_1\.GATES_24\.result
*121 CIRCUIT_1957\.int_memory_1\.GATES_25\.result
*122 CIRCUIT_1957\.int_memory_1\.GATES_26\.result
*123 CIRCUIT_1957\.int_memory_1\.GATES_27\.result
*124 CIRCUIT_1957\.int_memory_1\.GATES_28\.result
*125 CIRCUIT_1957\.int_memory_1\.GATES_29\.result
*126 CIRCUIT_1957\.int_memory_1\.GATES_3\.input2\[0\]
*127 CIRCUIT_1957\.int_memory_1\.GATES_3\.input2\[1\]
*128 CIRCUIT_1957\.int_memory_1\.GATES_3\.input2\[2\]
*129 CIRCUIT_1957\.int_memory_1\.GATES_3\.input2\[3\]
*130 CIRCUIT_1957\.int_memory_1\.GATES_30\.result
*131 CIRCUIT_1957\.int_memory_1\.GATES_31\.result
*132 CIRCUIT_1957\.int_memory_1\.GATES_32\.result
*133 CIRCUIT_1957\.int_memory_1\.GATES_33\.result
*134 CIRCUIT_1957\.int_memory_1\.GATES_4\.input2\[0\]
*135 CIRCUIT_1957\.int_memory_1\.GATES_4\.input2\[1\]
*136 CIRCUIT_1957\.int_memory_1\.GATES_4\.input2\[2\]
*137 CIRCUIT_1957\.int_memory_1\.GATES_4\.input2\[3\]
*138 CIRCUIT_1957\.int_memory_1\.GATES_49\.input2\[0\]
*139 CIRCUIT_1957\.int_memory_1\.GATES_49\.input2\[1\]
*140 CIRCUIT_1957\.int_memory_1\.GATES_49\.input2\[2\]
*141 CIRCUIT_1957\.int_memory_1\.GATES_49\.input2\[3\]
*142 CIRCUIT_1957\.int_memory_1\.GATES_5\.input2\[0\]
*143 CIRCUIT_1957\.int_memory_1\.GATES_5\.input2\[1\]
*144 CIRCUIT_1957\.int_memory_1\.GATES_5\.input2\[2\]
*145 CIRCUIT_1957\.int_memory_1\.GATES_5\.input2\[3\]
*146 CIRCUIT_1957\.int_memory_1\.GATES_50\.result
*147 CIRCUIT_1957\.int_memory_1\.GATES_51\.input2\[0\]
*148 CIRCUIT_1957\.int_memory_1\.GATES_51\.input2\[1\]
*149 CIRCUIT_1957\.int_memory_1\.GATES_51\.input2\[2\]
*150 CIRCUIT_1957\.int_memory_1\.GATES_51\.input2\[3\]
*151 CIRCUIT_1957\.int_memory_1\.GATES_53\.result
*152 CIRCUIT_1957\.int_memory_1\.GATES_6\.input2\[0\]
*153 CIRCUIT_1957\.int_memory_1\.GATES_6\.input2\[1\]
*154 CIRCUIT_1957\.int_memory_1\.GATES_6\.input2\[2\]
*155 CIRCUIT_1957\.int_memory_1\.GATES_6\.input2\[3\]
*156 CIRCUIT_1957\.int_memory_1\.GATES_7\.input2\[0\]
*157 CIRCUIT_1957\.int_memory_1\.GATES_7\.input2\[1\]
*158 CIRCUIT_1957\.int_memory_1\.GATES_7\.input2\[2\]
*159 CIRCUIT_1957\.int_memory_1\.GATES_7\.input2\[3\]
*160 CIRCUIT_1957\.int_memory_1\.GATES_8\.input2\[0\]
*161 CIRCUIT_1957\.int_memory_1\.GATES_8\.input2\[1\]
*162 CIRCUIT_1957\.int_memory_1\.GATES_8\.input2\[2\]
*163 CIRCUIT_1957\.int_memory_1\.GATES_8\.input2\[3\]
*164 CIRCUIT_1957\.int_memory_1\.div_1\.A0
*165 CIRCUIT_1957\.int_memory_1\.div_1\.A1
*166 CIRCUIT_1957\.int_memory_1\.div_1\.A2
*167 CIRCUIT_1957\.int_memory_1\.div_1\.A3
*168 CIRCUIT_1957\.int_memory_1\.div_1\.A4
*169 CIRCUIT_1957\.int_memory_1\.div_1\.A5
*170 CIRCUIT_1957\.int_memory_1\.div_1\.A6
*171 CIRCUIT_1957\.int_memory_1\.div_1\.A7
*172 CIRCUIT_1957\.int_memory_1\.div_1\.B0
*173 CIRCUIT_1957\.int_memory_1\.div_1\.B1
*174 CIRCUIT_1957\.int_memory_1\.div_1\.B2
*175 CIRCUIT_1957\.int_memory_1\.div_1\.B3
*176 CIRCUIT_1957\.int_memory_1\.mul2_1\.A0
*177 CIRCUIT_1957\.int_memory_1\.mul2_1\.A1
*178 CIRCUIT_1957\.int_memory_1\.mul2_1\.A2
*179 CIRCUIT_1957\.int_memory_1\.mul2_1\.A3
*180 CIRCUIT_1957\.int_memory_1\.mul2_1\.B0
*181 CIRCUIT_1957\.int_memory_1\.mul2_1\.B1
*182 CIRCUIT_1957\.int_memory_1\.mul2_1\.B2
*183 CIRCUIT_1957\.int_memory_1\.mul2_1\.B3
*184 _0000_
*185 _0001_
*186 _0002_
*187 _0003_
*188 _0004_
*189 _0005_
*190 _0006_
*191 _0007_
*192 _0008_
*193 _0009_
*194 _0010_
*195 _0011_
*196 _0012_
*197 _0013_
*198 _0014_
*199 _0015_
*200 _0016_
*201 _0017_
*202 _0018_
*203 _0027_
*204 _0028_
*205 _0029_
*206 _0030_
*207 _0031_
*208 _0032_
*209 _0033_
*210 _0034_
*211 _0035_
*212 _0036_
*213 _0037_
*214 _0038_
*215 _0039_
*216 _0040_
*217 _0041_
*218 _0042_
*219 _0043_
*220 _0044_
*221 _0045_
*222 _0046_
*223 _0047_
*224 _0048_
*225 _0049_
*226 _0050_
*227 _0051_
*228 _0052_
*229 _0053_
*230 _0054_
*231 _0055_
*232 _0056_
*233 _0057_
*234 _0058_
*235 _0059_
*236 _0060_
*237 _0061_
*238 _0062_
*239 _0063_
*240 _0064_
*241 _0065_
*242 _0066_
*243 _0067_
*244 _0068_
*245 _0069_
*246 _0070_
*247 _0071_
*248 _0072_
*249 _0073_
*250 _0074_
*251 _0075_
*252 _0076_
*253 _0077_
*254 _0078_
*255 _0079_
*256 _0080_
*257 _0081_
*258 _0082_
*259 _0083_
*260 _0084_
*261 _0085_
*262 _0086_
*263 _0087_
*264 _0088_
*265 _0089_
*266 _0090_
*267 _0091_
*268 _0092_
*269 _0093_
*270 _0094_
*271 _0095_
*272 _0096_
*273 _0097_
*274 _0098_
*275 _0099_
*276 _0100_
*277 _0101_
*278 _0102_
*279 _0103_
*280 _0104_
*281 _0105_
*282 _0106_
*283 _0107_
*284 _0108_
*285 _0109_
*286 _0110_
*287 _0111_
*288 _0112_
*289 _0113_
*290 _0114_
*291 _0115_
*292 _0116_
*293 _0117_
*294 _0118_
*295 _0119_
*296 _0120_
*297 _0121_
*298 _0122_
*299 _0123_
*300 _0124_
*301 _0125_
*302 _0126_
*303 _0127_
*304 _0128_
*305 _0129_
*306 _0130_
*307 _0131_
*308 _0132_
*309 _0133_
*310 _0134_
*311 _0135_
*312 _0136_
*313 _0137_
*314 _0138_
*315 _0139_
*316 _0140_
*317 _0141_
*318 _0142_
*319 _0143_
*320 _0144_
*321 _0145_
*322 _0146_
*323 _0147_
*324 _0148_
*325 _0149_
*326 _0150_
*327 _0151_
*328 _0152_
*329 _0153_
*330 _0154_
*331 _0155_
*332 _0156_
*333 _0157_
*334 _0158_
*335 _0159_
*336 _0160_
*337 _0161_
*338 _0162_
*339 _0163_
*340 _0164_
*341 _0165_
*342 _0166_
*343 _0167_
*344 _0168_
*345 _0169_
*346 _0170_
*347 _0171_
*348 _0172_
*349 _0173_
*350 _0174_
*351 _0175_
*352 _0176_
*353 _0177_
*354 _0178_
*355 _0179_
*356 _0180_
*357 _0181_
*358 _0182_
*359 _0183_
*360 _0184_
*361 _0185_
*362 _0186_
*363 _0187_
*364 _0188_
*365 _0189_
*366 _0190_
*367 _0191_
*368 _0192_
*369 _0193_
*370 _0194_
*371 _0195_
*372 _0196_
*373 _0197_
*374 _0198_
*375 _0199_
*376 _0200_
*377 _0201_
*378 _0202_
*379 _0203_
*380 _0204_
*381 _0205_
*382 _0206_
*383 _0207_
*384 _0208_
*385 _0209_
*386 _0210_
*387 _0211_
*388 _0212_
*389 _0213_
*390 _0214_
*391 _0215_
*392 _0216_
*393 _0217_
*394 _0218_
*395 _0219_
*396 _0220_
*397 _0221_
*398 _0222_
*399 _0223_
*400 _0224_
*401 _0225_
*402 _0226_
*403 _0227_
*404 _0228_
*405 _0229_
*406 _0230_
*407 _0231_
*408 _0232_
*409 _0233_
*410 _0234_
*411 _0235_
*412 _0236_
*413 _0237_
*414 _0238_
*415 _0239_
*416 _0240_
*417 _0241_
*418 _0242_
*419 _0243_
*420 _0244_
*421 _0245_
*422 _0246_
*423 _0247_
*424 _0248_
*425 _0249_
*426 _0250_
*427 _0251_
*428 _0252_
*429 _0253_
*430 _0254_
*431 _0255_
*432 _0256_
*433 _0257_
*434 _0258_
*435 _0259_
*436 _0260_
*437 _0261_
*438 _0262_
*439 _0263_
*440 _0264_
*441 _0265_
*442 _0266_
*443 _0267_
*444 _0268_
*445 _0269_
*446 _0270_
*447 _0271_
*448 _0272_
*449 _0273_
*450 _0274_
*451 _0275_
*452 _0276_
*453 _0277_
*454 _0278_
*455 _0279_
*456 _0280_
*457 _0281_
*458 _0282_
*459 _0283_
*460 _0284_
*461 _0285_
*462 _0286_
*463 _0287_
*464 _0288_
*465 _0289_
*466 _0290_
*467 _0291_
*468 _0292_
*469 _0293_
*470 _0294_
*471 _0295_
*472 _0296_
*473 _0297_
*474 _0298_
*475 _0299_
*476 _0300_
*477 _0301_
*478 _0302_
*479 _0303_
*480 _0304_
*481 _0305_
*482 _0306_
*483 _0307_
*484 _0308_
*485 _0309_
*486 _0310_
*487 _0311_
*488 _0312_
*489 _0313_
*490 _0314_
*491 _0315_
*492 _0316_
*493 _0317_
*494 _0318_
*495 _0319_
*496 _0320_
*497 _0321_
*498 _0322_
*499 _0323_
*500 _0324_
*501 _0325_
*502 _0326_
*503 _0327_
*504 _0328_
*505 _0329_
*506 _0330_
*507 _0331_
*508 _0332_
*509 _0333_
*510 _0334_
*511 _0335_
*512 _0336_
*513 _0337_
*514 _0338_
*515 _0339_
*516 _0340_
*517 _0341_
*518 _0342_
*519 _0343_
*520 _0344_
*521 _0345_
*522 _0346_
*523 _0347_
*524 _0348_
*525 _0349_
*526 _0350_
*527 _0351_
*528 _0352_
*529 _0353_
*530 _0354_
*531 _0355_
*532 _0356_
*533 _0357_
*534 _0358_
*535 _0359_
*536 _0360_
*537 _0361_
*538 _0362_
*539 _0363_
*540 _0364_
*541 _0365_
*542 _0366_
*543 _0367_
*544 _0368_
*545 _0369_
*546 _0370_
*547 _0371_
*548 _0372_
*549 _0373_
*550 _0374_
*551 _0375_
*552 _0376_
*553 _0377_
*554 _0378_
*555 _0379_
*556 _0380_
*557 _0381_
*558 _0382_
*559 _0383_
*560 _0384_
*561 _0385_
*562 _0386_
*563 _0387_
*564 _0388_
*565 _0389_
*566 _0390_
*567 _0391_
*568 _0392_
*569 _0393_
*570 _0394_
*571 _0395_
*572 _0396_
*573 _0397_
*574 _0398_
*575 _0399_
*576 _0400_
*577 _0401_
*578 _0402_
*579 _0403_
*580 _0404_
*581 _0405_
*582 _0406_
*583 _0407_
*584 _0408_
*585 _0409_
*586 _0410_
*587 _0411_
*588 _0412_
*589 _0413_
*590 _0414_
*591 _0415_
*592 _0416_
*593 _0417_
*594 _0418_
*595 _0419_
*596 _0420_
*597 _0421_
*598 _0422_
*599 _0423_
*600 _0424_
*601 _0425_
*602 _0426_
*603 _0427_
*604 _0428_
*605 _0429_
*606 _0430_
*607 _0431_
*608 _0432_
*609 _0433_
*610 _0434_
*611 _0435_
*612 _0436_
*613 _0437_
*614 _0438_
*615 _0439_
*616 _0440_
*617 _0441_
*618 _0442_
*619 _0443_
*620 _0444_
*621 _0445_
*622 _0446_
*623 _0447_
*624 _0448_
*625 _0449_
*626 _0450_
*627 _0451_
*628 _0452_
*629 _0453_
*630 _0454_
*631 _0455_
*632 _0456_
*633 _0457_
*634 _0458_
*635 _0459_
*636 _0460_
*637 _0461_
*638 _0462_
*639 _0463_
*640 _0464_
*641 _0465_
*642 _0466_
*643 _0467_
*644 _0468_
*645 _0469_
*646 _0470_
*647 _0471_
*648 _0472_
*649 _0473_
*650 _0474_
*651 _0475_
*652 _0476_
*653 _0477_
*654 _0478_
*655 _0479_
*656 _0480_
*657 _0481_
*658 _0482_
*659 _0483_
*660 _0484_
*661 _0485_
*662 _0486_
*663 _0487_
*664 _0488_
*665 _0489_
*666 _0490_
*667 _0491_
*668 _0492_
*669 _0493_
*670 _0494_
*671 _0495_
*672 _0496_
*673 _0497_
*674 _0498_
*675 _0499_
*676 _0500_
*677 _0501_
*678 _0502_
*679 _0503_
*680 _0504_
*681 _0505_
*682 _0506_
*683 _0507_
*684 _0508_
*685 _0509_
*686 _0510_
*687 _0511_
*688 _0512_
*689 _0513_
*690 _0514_
*691 _0515_
*692 _0516_
*693 _0517_
*694 _0518_
*695 _0519_
*696 _0520_
*697 _0521_
*698 _0522_
*699 _0523_
*700 _0524_
*701 _0525_
*702 _0526_
*703 _0527_
*704 _0528_
*705 _0529_
*706 _0530_
*707 _0531_
*708 _0532_
*709 _0533_
*710 clknet_0_CIRCUIT_1957\.int_memory_1\.GATES_21\.result
*711 clknet_0_CIRCUIT_1957\.int_memory_1\.GATES_22\.result
*712 clknet_0_CIRCUIT_1957\.int_memory_1\.GATES_23\.result
*713 clknet_0_CIRCUIT_1957\.int_memory_1\.GATES_24\.result
*714 clknet_0_CIRCUIT_1957\.int_memory_1\.GATES_25\.result
*715 clknet_0_CIRCUIT_1957\.int_memory_1\.GATES_26\.result
*716 clknet_0_CIRCUIT_1957\.int_memory_1\.GATES_27\.result
*717 clknet_0_CIRCUIT_1957\.int_memory_1\.GATES_28\.result
*718 clknet_0_CIRCUIT_1957\.int_memory_1\.GATES_29\.result
*719 clknet_0_CIRCUIT_1957\.int_memory_1\.GATES_30\.result
*720 clknet_0_CIRCUIT_1957\.int_memory_1\.GATES_31\.result
*721 clknet_0_CIRCUIT_1957\.int_memory_1\.GATES_32\.result
*722 clknet_0_CIRCUIT_1957\.int_memory_1\.GATES_33\.result
*723 clknet_0_CIRCUIT_1957\.int_memory_1\.GATES_50\.result
*724 clknet_0_CIRCUIT_1957\.int_memory_1\.GATES_53\.result
*725 clknet_0__0142_
*726 clknet_0__0143_
*727 clknet_0__0498_
*728 clknet_0__0502_
*729 clknet_0__0526_
*730 clknet_0_clk
*731 clknet_1_0__leaf_CIRCUIT_1957\.int_memory_1\.GATES_21\.result
*732 clknet_1_0__leaf_CIRCUIT_1957\.int_memory_1\.GATES_22\.result
*733 clknet_1_0__leaf_CIRCUIT_1957\.int_memory_1\.GATES_23\.result
*734 clknet_1_0__leaf_CIRCUIT_1957\.int_memory_1\.GATES_24\.result
*735 clknet_1_0__leaf_CIRCUIT_1957\.int_memory_1\.GATES_25\.result
*736 clknet_1_0__leaf_CIRCUIT_1957\.int_memory_1\.GATES_26\.result
*737 clknet_1_0__leaf_CIRCUIT_1957\.int_memory_1\.GATES_27\.result
*738 clknet_1_0__leaf_CIRCUIT_1957\.int_memory_1\.GATES_28\.result
*739 clknet_1_0__leaf_CIRCUIT_1957\.int_memory_1\.GATES_29\.result
*740 clknet_1_0__leaf_CIRCUIT_1957\.int_memory_1\.GATES_30\.result
*741 clknet_1_0__leaf_CIRCUIT_1957\.int_memory_1\.GATES_31\.result
*742 clknet_1_0__leaf_CIRCUIT_1957\.int_memory_1\.GATES_32\.result
*743 clknet_1_0__leaf_CIRCUIT_1957\.int_memory_1\.GATES_33\.result
*744 clknet_1_0__leaf_CIRCUIT_1957\.int_memory_1\.GATES_50\.result
*745 clknet_1_0__leaf_CIRCUIT_1957\.int_memory_1\.GATES_53\.result
*746 clknet_1_0__leaf__0142_
*747 clknet_1_0__leaf__0143_
*748 clknet_1_0__leaf__0498_
*749 clknet_1_0__leaf__0502_
*750 clknet_1_0__leaf__0526_
*751 clknet_1_0__leaf_clk
*752 clknet_1_1__leaf_CIRCUIT_1957\.int_memory_1\.GATES_21\.result
*753 clknet_1_1__leaf_CIRCUIT_1957\.int_memory_1\.GATES_22\.result
*754 clknet_1_1__leaf_CIRCUIT_1957\.int_memory_1\.GATES_23\.result
*755 clknet_1_1__leaf_CIRCUIT_1957\.int_memory_1\.GATES_24\.result
*756 clknet_1_1__leaf_CIRCUIT_1957\.int_memory_1\.GATES_25\.result
*757 clknet_1_1__leaf_CIRCUIT_1957\.int_memory_1\.GATES_26\.result
*758 clknet_1_1__leaf_CIRCUIT_1957\.int_memory_1\.GATES_27\.result
*759 clknet_1_1__leaf_CIRCUIT_1957\.int_memory_1\.GATES_28\.result
*760 clknet_1_1__leaf_CIRCUIT_1957\.int_memory_1\.GATES_29\.result
*761 clknet_1_1__leaf_CIRCUIT_1957\.int_memory_1\.GATES_30\.result
*762 clknet_1_1__leaf_CIRCUIT_1957\.int_memory_1\.GATES_31\.result
*763 clknet_1_1__leaf_CIRCUIT_1957\.int_memory_1\.GATES_32\.result
*764 clknet_1_1__leaf_CIRCUIT_1957\.int_memory_1\.GATES_33\.result
*765 clknet_1_1__leaf_CIRCUIT_1957\.int_memory_1\.GATES_50\.result
*766 clknet_1_1__leaf_CIRCUIT_1957\.int_memory_1\.GATES_53\.result
*767 clknet_1_1__leaf__0142_
*768 clknet_1_1__leaf__0143_
*769 clknet_1_1__leaf__0498_
*770 clknet_1_1__leaf__0502_
*771 clknet_1_1__leaf__0526_
*772 clknet_1_1__leaf_clk
*773 net1
*774 net10
*775 net11
*776 net12
*777 net13
*778 net14
*779 net15
*780 net16
*781 net17
*782 net18
*783 net19
*784 net2
*785 net20
*786 net21
*787 net22
*788 net23
*789 net24
*790 net25
*791 net26
*792 net27
*793 net3
*794 net4
*795 net40
*796 net41
*797 net42
*798 net43
*799 net44
*800 net45
*801 net46
*802 net47
*803 net5
*804 net6
*805 net7
*806 net8
*807 net9
*808 ANTENNA__0536__A
*809 ANTENNA__0536__C
*810 ANTENNA__0536__D
*811 ANTENNA__0560__A
*812 ANTENNA__0572__A0
*813 ANTENNA__0576__A0
*814 ANTENNA__0580__A0
*815 ANTENNA__0588__A
*816 ANTENNA__0590__A
*817 ANTENNA__0594__S
*818 ANTENNA__0596__S
*819 ANTENNA__0598__S
*820 ANTENNA__0600__S
*821 ANTENNA__0606__A
*822 ANTENNA__0609__B1
*823 ANTENNA__0612__A
*824 ANTENNA__0617__A3
*825 ANTENNA__0622__A
*826 ANTENNA__0757__B
*827 ANTENNA__0784__A
*828 ANTENNA__0784__B
*829 ANTENNA__0786__B
*830 ANTENNA__0788__B
*831 ANTENNA__0789__B
*832 ANTENNA__0792__A
*833 ANTENNA__0792__B
*834 ANTENNA__0793__B
*835 ANTENNA__0794__B
*836 ANTENNA__0795__B
*837 ANTENNA__0796__A2
*838 ANTENNA__0797__A2
*839 ANTENNA__0803__A
*840 ANTENNA__0839__B2
*841 ANTENNA__0852__A2
*842 ANTENNA__0855__A2
*843 ANTENNA__0859__B2
*844 ANTENNA__0861__A
*845 ANTENNA__0873__A2
*846 ANTENNA__0874__B1
*847 ANTENNA__0881__B1
*848 ANTENNA__0885__A
*849 ANTENNA__0893__B1
*850 ANTENNA__0898__A2
*851 ANTENNA__0900__B1
*852 ANTENNA__0915__A
*853 ANTENNA__0933__A2
*854 ANTENNA__0940__A2
*855 ANTENNA__0945__A2
*856 ANTENNA__0956__C
*857 ANTENNA__0962__C
*858 ANTENNA__0964__A0
*859 ANTENNA__0966__A0
*860 ANTENNA__0968__A0
*861 ANTENNA__0976__A
*862 ANTENNA__0977__B
*863 ANTENNA__0979__A
*864 ANTENNA__0980__A
*865 ANTENNA__0980__B
*866 ANTENNA__0982__B
*867 ANTENNA__0982__C
*868 ANTENNA__0984__B
*869 ANTENNA__0986__B
*870 ANTENNA__0989__B
*871 ANTENNA__0992__A
*872 ANTENNA__0992__B
*873 ANTENNA__0994__A
*874 ANTENNA__0994__B
*875 ANTENNA__0996__A
*876 ANTENNA__0996__B
*877 ANTENNA__0998__A
*878 ANTENNA__0998__B
*879 ANTENNA__1000__A
*880 ANTENNA__1000__B
*881 ANTENNA__1000__C
*882 ANTENNA__1002__B
*883 ANTENNA__1004__A
*884 ANTENNA__1004__B
*885 ANTENNA__1007__A
*886 ANTENNA__1008__A
*887 ANTENNA__1009__B
*888 ANTENNA__1010__A
*889 ANTENNA__1011__B1
*890 ANTENNA__1012__A
*891 ANTENNA__1013__B
*892 ANTENNA__1014__A
*893 ANTENNA__1015__B1
*894 ANTENNA__1016__B
*895 ANTENNA__1018__B1
*896 ANTENNA__1019__A
*897 ANTENNA__1020__B
*898 ANTENNA__1021__A
*899 ANTENNA__1022__B1
*900 ANTENNA__1023__B1
*901 ANTENNA__1024__B1
*902 ANTENNA__1025__B1
*903 ANTENNA__1026__B1
*904 ANTENNA__1027__B1
*905 ANTENNA__1028__B1
*906 ANTENNA__1029__A
*907 ANTENNA__1030__A2
*908 ANTENNA__1030__B1
*909 ANTENNA__1031__A2
*910 ANTENNA__1031__B1
*911 ANTENNA__1032__A2
*912 ANTENNA__1032__B1
*913 ANTENNA__1033__A2
*914 ANTENNA__1033__B1
*915 ANTENNA__1034__A2
*916 ANTENNA__1034__B1
*917 ANTENNA__1035__A2
*918 ANTENNA__1035__B1
*919 ANTENNA__1036__A2
*920 ANTENNA__1036__B1
*921 ANTENNA__1037__A2
*922 ANTENNA__1037__B1
*923 ANTENNA__1038__A2
*924 ANTENNA__1038__B1
*925 ANTENNA__1039__A2
*926 ANTENNA__1039__B1
*927 ANTENNA__1040__A
*928 ANTENNA__1041__B1
*929 ANTENNA__1042__B1
*930 ANTENNA__1043__B1
*931 ANTENNA__1044__B1
*932 ANTENNA__1045__B1
*933 ANTENNA__1046__B1
*934 ANTENNA__1074__B1
*935 ANTENNA__1075__B1
*936 ANTENNA__1076__B1
*937 ANTENNA__1077__B1
*938 ANTENNA__1078__B
*939 ANTENNA__1080__A_N
*940 ANTENNA__1082__A_N
*941 ANTENNA__1084__A_N
*942 ANTENNA__1086__A
*943 ANTENNA__1087__B1
*944 ANTENNA__1088__B1
*945 ANTENNA__1089__B1
*946 ANTENNA__1090__B1
*947 ANTENNA__1091__B1
*948 ANTENNA__1092__B1
*949 ANTENNA__1093__B1
*950 ANTENNA__1094__B1
*951 ANTENNA__1095__B1
*952 ANTENNA__1096__B1
*953 ANTENNA__1097__A
*954 ANTENNA__1098__B1
*955 ANTENNA__1099__B1
*956 ANTENNA__1101__B1
*957 ANTENNA__1102__B1
*958 ANTENNA__1103__B1
*959 ANTENNA__1105__B1
*960 ANTENNA__1106__B1
*961 ANTENNA__1107__B1
*962 ANTENNA__1108__A
*963 ANTENNA__1109__A2
*964 ANTENNA__1110__A2
*965 ANTENNA__1110__B1
*966 ANTENNA__1111__A2
*967 ANTENNA__1111__B1
*968 ANTENNA__1112__A2
*969 ANTENNA__1112__B1
*970 ANTENNA__1113__A2
*971 ANTENNA__1114__A2
*972 ANTENNA__1114__B1
*973 ANTENNA__1115__A2
*974 ANTENNA__1115__B1
*975 ANTENNA__1116__A2
*976 ANTENNA__1116__B1
*977 ANTENNA__1117__A2
*978 ANTENNA__1118__A2
*979 ANTENNA__1118__B1
*980 ANTENNA__1146__CLK
*981 ANTENNA_clkbuf_0_clk_A
*982 ANTENNA_input10_A
*983 ANTENNA_input11_A
*984 ANTENNA_input1_A
*985 ANTENNA_input2_A
*986 ANTENNA_input3_A
*987 ANTENNA_input4_A
*988 ANTENNA_input5_A
*989 ANTENNA_input6_A
*990 ANTENNA_input7_A
*991 ANTENNA_input8_A
*992 ANTENNA_input9_A
*993 FILLER_0_102
*994 FILLER_0_11
*995 FILLER_0_110
*996 FILLER_0_113
*997 FILLER_0_120
*998 FILLER_0_133
*999 FILLER_0_139
*1000 FILLER_0_141
*1001 FILLER_0_146
*1002 FILLER_0_166
*1003 FILLER_0_169
*1004 FILLER_0_175
*1005 FILLER_0_183
*1006 FILLER_0_193
*1007 FILLER_0_197
*1008 FILLER_0_203
*1009 FILLER_0_211
*1010 FILLER_0_215
*1011 FILLER_0_222
*1012 FILLER_0_225
*1013 FILLER_0_23
*1014 FILLER_0_233
*1015 FILLER_0_241
*1016 FILLER_0_249
*1017 FILLER_0_253
*1018 FILLER_0_259
*1019 FILLER_0_266
*1020 FILLER_0_27
*1021 FILLER_0_270
*1022 FILLER_0_274
*1023 FILLER_0_281
*1024 FILLER_0_286
*1025 FILLER_0_29
*1026 FILLER_0_297
*1027 FILLER_0_3
*1028 FILLER_0_35
*1029 FILLER_0_46
*1030 FILLER_0_54
*1031 FILLER_0_57
*1032 FILLER_0_68
*1033 FILLER_0_75
*1034 FILLER_0_82
*1035 FILLER_0_85
*1036 FILLER_0_91
*1037 FILLER_0_95
*1038 FILLER_10_100
*1039 FILLER_10_109
*1040 FILLER_10_11
*1041 FILLER_10_134
*1042 FILLER_10_141
*1043 FILLER_10_147
*1044 FILLER_10_154
*1045 FILLER_10_17
*1046 FILLER_10_178
*1047 FILLER_10_187
*1048 FILLER_10_194
*1049 FILLER_10_197
*1050 FILLER_10_20
*1051 FILLER_10_204
*1052 FILLER_10_213
*1053 FILLER_10_222
*1054 FILLER_10_231
*1055 FILLER_10_238
*1056 FILLER_10_244
*1057 FILLER_10_250
*1058 FILLER_10_253
*1059 FILLER_10_257
*1060 FILLER_10_26
*1061 FILLER_10_269
*1062 FILLER_10_281
*1063 FILLER_10_29
*1064 FILLER_10_293
*1065 FILLER_10_3
*1066 FILLER_10_37
*1067 FILLER_10_65
*1068 FILLER_10_69
*1069 FILLER_10_78
*1070 FILLER_10_85
*1071 FILLER_10_94
*1072 FILLER_11_10
*1073 FILLER_11_110
*1074 FILLER_11_113
*1075 FILLER_11_119
*1076 FILLER_11_125
*1077 FILLER_11_149
*1078 FILLER_11_159
*1079 FILLER_11_16
*1080 FILLER_11_166
*1081 FILLER_11_169
*1082 FILLER_11_182
*1083 FILLER_11_191
*1084 FILLER_11_200
*1085 FILLER_11_209
*1086 FILLER_11_218
*1087 FILLER_11_225
*1088 FILLER_11_230
*1089 FILLER_11_234
*1090 FILLER_11_252
*1091 FILLER_11_26
*1092 FILLER_11_263
*1093 FILLER_11_269
*1094 FILLER_11_277
*1095 FILLER_11_281
*1096 FILLER_11_293
*1097 FILLER_11_3
*1098 FILLER_11_30
*1099 FILLER_11_37
*1100 FILLER_11_44
*1101 FILLER_11_54
*1102 FILLER_11_57
*1103 FILLER_11_65
*1104 FILLER_11_7
*1105 FILLER_11_78
*1106 FILLER_11_82
*1107 FILLER_11_86
*1108 FILLER_12_102
*1109 FILLER_12_128
*1110 FILLER_12_132
*1111 FILLER_12_138
*1112 FILLER_12_141
*1113 FILLER_12_16
*1114 FILLER_12_163
*1115 FILLER_12_177
*1116 FILLER_12_191
*1117 FILLER_12_195
*1118 FILLER_12_197
*1119 FILLER_12_215
*1120 FILLER_12_224
*1121 FILLER_12_231
*1122 FILLER_12_239
*1123 FILLER_12_248
*1124 FILLER_12_253
*1125 FILLER_12_26
*1126 FILLER_12_262
*1127 FILLER_12_269
*1128 FILLER_12_281
*1129 FILLER_12_29
*1130 FILLER_12_293
*1131 FILLER_12_3
*1132 FILLER_12_37
*1133 FILLER_12_47
*1134 FILLER_12_53
*1135 FILLER_12_70
*1136 FILLER_12_81
*1137 FILLER_12_85
*1138 FILLER_12_9
*1139 FILLER_12_93
*1140 FILLER_13_110
*1141 FILLER_13_113
*1142 FILLER_13_120
*1143 FILLER_13_129
*1144 FILLER_13_153
*1145 FILLER_13_159
*1146 FILLER_13_166
*1147 FILLER_13_169
*1148 FILLER_13_175
*1149 FILLER_13_183
*1150 FILLER_13_196
*1151 FILLER_13_222
*1152 FILLER_13_225
*1153 FILLER_13_234
*1154 FILLER_13_238
*1155 FILLER_13_247
*1156 FILLER_13_258
*1157 FILLER_13_26
*1158 FILLER_13_267
*1159 FILLER_13_273
*1160 FILLER_13_279
*1161 FILLER_13_281
*1162 FILLER_13_293
*1163 FILLER_13_3
*1164 FILLER_13_30
*1165 FILLER_13_34
*1166 FILLER_13_44
*1167 FILLER_13_54
*1168 FILLER_13_57
*1169 FILLER_13_75
*1170 FILLER_13_85
*1171 FILLER_13_89
*1172 FILLER_13_9
*1173 FILLER_14_114
*1174 FILLER_14_138
*1175 FILLER_14_141
*1176 FILLER_14_165
*1177 FILLER_14_178
*1178 FILLER_14_194
*1179 FILLER_14_197
*1180 FILLER_14_208
*1181 FILLER_14_219
*1182 FILLER_14_229
*1183 FILLER_14_239
*1184 FILLER_14_25
*1185 FILLER_14_250
*1186 FILLER_14_253
*1187 FILLER_14_260
*1188 FILLER_14_268
*1189 FILLER_14_274
*1190 FILLER_14_280
*1191 FILLER_14_286
*1192 FILLER_14_29
*1193 FILLER_14_298
*1194 FILLER_14_3
*1195 FILLER_14_33
*1196 FILLER_14_40
*1197 FILLER_14_44
*1198 FILLER_14_65
*1199 FILLER_14_72
*1200 FILLER_14_82
*1201 FILLER_14_85
*1202 FILLER_14_90
*1203 FILLER_15_110
*1204 FILLER_15_113
*1205 FILLER_15_12
*1206 FILLER_15_121
*1207 FILLER_15_128
*1208 FILLER_15_152
*1209 FILLER_15_166
*1210 FILLER_15_169
*1211 FILLER_15_191
*1212 FILLER_15_202
*1213 FILLER_15_209
*1214 FILLER_15_222
*1215 FILLER_15_225
*1216 FILLER_15_230
*1217 FILLER_15_236
*1218 FILLER_15_245
*1219 FILLER_15_253
*1220 FILLER_15_261
*1221 FILLER_15_267
*1222 FILLER_15_273
*1223 FILLER_15_279
*1224 FILLER_15_281
*1225 FILLER_15_293
*1226 FILLER_15_3
*1227 FILLER_15_36
*1228 FILLER_15_40
*1229 FILLER_15_44
*1230 FILLER_15_54
*1231 FILLER_15_57
*1232 FILLER_15_66
*1233 FILLER_15_86
*1234 FILLER_16_107
*1235 FILLER_16_135
*1236 FILLER_16_139
*1237 FILLER_16_141
*1238 FILLER_16_154
*1239 FILLER_16_178
*1240 FILLER_16_191
*1241 FILLER_16_195
*1242 FILLER_16_197
*1243 FILLER_16_203
*1244 FILLER_16_211
*1245 FILLER_16_218
*1246 FILLER_16_225
*1247 FILLER_16_232
*1248 FILLER_16_238
*1249 FILLER_16_244
*1250 FILLER_16_249
*1251 FILLER_16_25
*1252 FILLER_16_253
*1253 FILLER_16_262
*1254 FILLER_16_269
*1255 FILLER_16_275
*1256 FILLER_16_281
*1257 FILLER_16_29
*1258 FILLER_16_293
*1259 FILLER_16_3
*1260 FILLER_16_51
*1261 FILLER_16_75
*1262 FILLER_16_82
*1263 FILLER_16_85
*1264 FILLER_17_105
*1265 FILLER_17_111
*1266 FILLER_17_113
*1267 FILLER_17_12
*1268 FILLER_17_121
*1269 FILLER_17_127
*1270 FILLER_17_154
*1271 FILLER_17_166
*1272 FILLER_17_169
*1273 FILLER_17_191
*1274 FILLER_17_199
*1275 FILLER_17_209
*1276 FILLER_17_216
*1277 FILLER_17_222
*1278 FILLER_17_225
*1279 FILLER_17_230
*1280 FILLER_17_234
*1281 FILLER_17_238
*1282 FILLER_17_259
*1283 FILLER_17_270
*1284 FILLER_17_276
*1285 FILLER_17_281
*1286 FILLER_17_293
*1287 FILLER_17_3
*1288 FILLER_17_32
*1289 FILLER_17_54
*1290 FILLER_17_57
*1291 FILLER_17_65
*1292 FILLER_17_85
*1293 FILLER_18_120
*1294 FILLER_18_129
*1295 FILLER_18_138
*1296 FILLER_18_141
*1297 FILLER_18_149
*1298 FILLER_18_176
*1299 FILLER_18_185
*1300 FILLER_18_194
*1301 FILLER_18_197
*1302 FILLER_18_201
*1303 FILLER_18_213
*1304 FILLER_18_221
*1305 FILLER_18_227
*1306 FILLER_18_233
*1307 FILLER_18_245
*1308 FILLER_18_251
*1309 FILLER_18_253
*1310 FILLER_18_26
*1311 FILLER_18_263
*1312 FILLER_18_271
*1313 FILLER_18_283
*1314 FILLER_18_29
*1315 FILLER_18_295
*1316 FILLER_18_3
*1317 FILLER_18_51
*1318 FILLER_18_62
*1319 FILLER_18_82
*1320 FILLER_18_85
*1321 FILLER_18_9
*1322 FILLER_18_93
*1323 FILLER_18_99
*1324 FILLER_19_103
*1325 FILLER_19_110
*1326 FILLER_19_113
*1327 FILLER_19_119
*1328 FILLER_19_12
*1329 FILLER_19_125
*1330 FILLER_19_149
*1331 FILLER_19_157
*1332 FILLER_19_166
*1333 FILLER_19_169
*1334 FILLER_19_176
*1335 FILLER_19_185
*1336 FILLER_19_193
*1337 FILLER_19_201
*1338 FILLER_19_221
*1339 FILLER_19_225
*1340 FILLER_19_231
*1341 FILLER_19_239
*1342 FILLER_19_248
*1343 FILLER_19_259
*1344 FILLER_19_268
*1345 FILLER_19_274
*1346 FILLER_19_281
*1347 FILLER_19_293
*1348 FILLER_19_3
*1349 FILLER_19_36
*1350 FILLER_19_44
*1351 FILLER_19_54
*1352 FILLER_19_57
*1353 FILLER_19_69
*1354 FILLER_19_93
*1355 FILLER_1_110
*1356 FILLER_1_113
*1357 FILLER_1_117
*1358 FILLER_1_125
*1359 FILLER_1_149
*1360 FILLER_1_162
*1361 FILLER_1_169
*1362 FILLER_1_177
*1363 FILLER_1_197
*1364 FILLER_1_205
*1365 FILLER_1_21
*1366 FILLER_1_210
*1367 FILLER_1_222
*1368 FILLER_1_225
*1369 FILLER_1_243
*1370 FILLER_1_251
*1371 FILLER_1_258
*1372 FILLER_1_264
*1373 FILLER_1_276
*1374 FILLER_1_281
*1375 FILLER_1_293
*1376 FILLER_1_297
*1377 FILLER_1_3
*1378 FILLER_1_33
*1379 FILLER_1_45
*1380 FILLER_1_53
*1381 FILLER_1_57
*1382 FILLER_1_62
*1383 FILLER_1_69
*1384 FILLER_1_76
*1385 FILLER_1_83
*1386 FILLER_1_9
*1387 FILLER_1_90
*1388 FILLER_20_121
*1389 FILLER_20_131
*1390 FILLER_20_138
*1391 FILLER_20_141
*1392 FILLER_20_148
*1393 FILLER_20_157
*1394 FILLER_20_184
*1395 FILLER_20_194
*1396 FILLER_20_197
*1397 FILLER_20_206
*1398 FILLER_20_210
*1399 FILLER_20_217
*1400 FILLER_20_225
*1401 FILLER_20_250
*1402 FILLER_20_253
*1403 FILLER_20_26
*1404 FILLER_20_262
*1405 FILLER_20_271
*1406 FILLER_20_277
*1407 FILLER_20_289
*1408 FILLER_20_29
*1409 FILLER_20_297
*1410 FILLER_20_3
*1411 FILLER_20_35
*1412 FILLER_20_55
*1413 FILLER_20_75
*1414 FILLER_20_82
*1415 FILLER_20_85
*1416 FILLER_20_9
*1417 FILLER_20_95
*1418 FILLER_21_10
*1419 FILLER_21_103
*1420 FILLER_21_110
*1421 FILLER_21_113
*1422 FILLER_21_131
*1423 FILLER_21_140
*1424 FILLER_21_149
*1425 FILLER_21_157