*SPEF "ieee 1481-1999"
*DESIGN "tholin_avalonsemi_5401"
*DATE "11:11:11 Fri 11 11, 1111"
*VENDOR "OpenRCX"
*PROGRAM "Parallel Extraction"
*VERSION "1.0"
*DESIGN_FLOW "NAME_SCOPE LOCAL" "PIN_CAP NONE"
*DIVIDER /
*DELIMITER :
*BUS_DELIMITER []
*T_UNIT 1 NS
*C_UNIT 1 PF
*R_UNIT 1 OHM
*L_UNIT 1 HENRY

*NAME_MAP
*1 clk
*2 io_in[0]
*3 io_in[1]
*4 io_in[2]
*5 io_in[3]
*6 io_in[4]
*7 io_in[5]
*8 io_in[6]
*9 io_in[7]
*10 io_in[8]
*11 io_in[9]
*12 net67
*13 io_out[0]
*14 io_out[10]
*15 io_out[11]
*16 io_out[12]
*17 io_out[13]
*18 io_out[14]
*19 io_out[15]
*20 io_out[16]
*21 io_out[17]
*22 io_out[18]
*23 io_out[19]
*24 io_out[1]
*25 io_out[20]
*26 io_out[21]
*27 net63
*28 net64
*29 net65
*30 net66
*31 net68
*32 io_out[2]
*33 io_out[3]
*34 net57
*35 net58
*36 net59
*37 net60
*38 net61
*39 net62
*40 rst
*43 CIRCUIT_1957\.D0
*44 CIRCUIT_1957\.D1
*45 CIRCUIT_1957\.D2
*46 CIRCUIT_1957\.D3
*47 CIRCUIT_1957\.GATES_10\.result
*48 CIRCUIT_1957\.GATES_27\.result
*49 CIRCUIT_1957\.GATES_28\.result
*50 CIRCUIT_1957\.GATES_30\.result
*51 CIRCUIT_1957\.GATES_33\.input2
*52 CIRCUIT_1957\.GATES_35\.result
*53 CIRCUIT_1957\.GATES_38\.result
*54 CIRCUIT_1957\.GATES_39\.result
*55 CIRCUIT_1957\.GATES_40\.result
*56 CIRCUIT_1957\.GATES_41\.result
*57 CIRCUIT_1957\.GATES_42\.result
*58 CIRCUIT_1957\.GATES_53\.result
*59 CIRCUIT_1957\.GATES_60\.result
*60 CIRCUIT_1957\.GATES_9\.result
*61 CIRCUIT_1957\.MEMORY_62\.d
*62 CIRCUIT_1957\.MEMORY_62\.s_currentState
*63 CIRCUIT_1957\.MEMORY_63\.d
*64 CIRCUIT_1957\.MEMORY_63\.s_currentState
*65 CIRCUIT_1957\.MEMORY_64\.d
*66 CIRCUIT_1957\.MEMORY_64\.s_currentState
*67 CIRCUIT_1957\.MEMORY_65\.d
*68 CIRCUIT_1957\.MEMORY_65\.s_currentState
*69 CIRCUIT_1957\.MEMORY_66\.d
*70 CIRCUIT_1957\.MEMORY_66\.s_currentState
*71 CIRCUIT_1957\.MEMORY_67\.d
*72 CIRCUIT_1957\.MEMORY_67\.s_currentState
*73 CIRCUIT_1957\.MEMORY_68\.s_currentState
*74 CIRCUIT_1957\.MEMORY_69\.s_currentState
*75 CIRCUIT_1957\.MEMORY_70\.s_currentState
*76 CIRCUIT_1957\.MEMORY_71\.s_currentState
*77 CIRCUIT_1957\.MEMORY_72\.s_currentState
*78 CIRCUIT_1957\.MEMORY_73\.s_currentState
*79 CIRCUIT_1957\.MEMORY_74\.s_currentState
*80 CIRCUIT_1957\.MEMORY_75\.s_currentState
*81 CIRCUIT_1957\.MEMORY_76\.s_currentState
*82 CIRCUIT_1957\.MEMORY_77\.s_currentState
*83 CIRCUIT_1957\.MEMORY_78\.s_currentState
*84 CIRCUIT_1957\.MEMORY_79\.s_currentState
*85 CIRCUIT_1957\.MEMORY_80\.s_currentState
*86 CIRCUIT_1957\.MEMORY_81\.s_currentState
*87 CIRCUIT_1957\.MEMORY_82\.s_currentState
*88 CIRCUIT_1957\.MEMORY_83\.s_currentState
*89 CIRCUIT_1957\.MEMORY_84\.s_currentState
*90 CIRCUIT_1957\.MEMORY_85\.s_currentState
*91 CIRCUIT_1957\.MEMORY_86\.s_currentState
*92 CIRCUIT_1957\.MEMORY_87\.s_currentState
*93 CIRCUIT_1957\.MEMORY_88\.s_currentState
*94 CIRCUIT_1957\.clock_gen_2_1\.CLK1
*95 CIRCUIT_1957\.clock_gen_2_1\.GATES_1\.input2
*96 CIRCUIT_1957\.clock_gen_2_1\.GATES_3\.result
*97 CIRCUIT_1957\.clock_gen_2_1\.MEMORY_4\.d
*98 CIRCUIT_1957\.clock_gen_2_1\.MEMORY_4\.s_currentState
*99 CIRCUIT_1957\.clock_gen_2_1\.MEMORY_5\.d
*100 CIRCUIT_1957\.clock_gen_2_1\.MEMORY_5\.s_currentState
*101 CIRCUIT_1957\.clock_gen_2_1\.MEMORY_6\.s_currentState
*102 CIRCUIT_1957\.dest_reg_sel_new_1\.GATES_14\.input1
*103 CIRCUIT_1957\.dest_reg_sel_new_1\.GATES_14\.input2
*104 CIRCUIT_1957\.dest_reg_sel_new_1\.GATES_26\.result
*105 CIRCUIT_1957\.inst_dec_1\.MEMORY_21\.s_currentState
*106 CIRCUIT_1957\.inst_dec_1\.MEMORY_22\.s_currentState
*107 CIRCUIT_1957\.inst_dec_1\.MEMORY_23\.s_currentState
*108 CIRCUIT_1957\.inst_dec_1\.MEMORY_24\.s_currentState
*109 CIRCUIT_1957\.int_memory_1\.GATES_1\.input2\[0\]
*110 CIRCUIT_1957\.int_memory_1\.GATES_1\.input2\[1\]
*111 CIRCUIT_1957\.int_memory_1\.GATES_1\.input2\[2\]
*112 CIRCUIT_1957\.int_memory_1\.GATES_1\.input2\[3\]
*113 CIRCUIT_1957\.int_memory_1\.GATES_2\.input2\[0\]
*114 CIRCUIT_1957\.int_memory_1\.GATES_2\.input2\[1\]
*115 CIRCUIT_1957\.int_memory_1\.GATES_2\.input2\[2\]
*116 CIRCUIT_1957\.int_memory_1\.GATES_2\.input2\[3\]
*117 CIRCUIT_1957\.int_memory_1\.GATES_21\.result
*118 CIRCUIT_1957\.int_memory_1\.GATES_22\.result
*119 CIRCUIT_1957\.int_memory_1\.GATES_23\.result
*120 CIRCUIT_1957\.int_memory_1\.GATES_24\.result
*121 CIRCUIT_1957\.int_memory_1\.GATES_25\.result
*122 CIRCUIT_1957\.int_memory_1\.GATES_26\.result
*123 CIRCUIT_1957\.int_memory_1\.GATES_27\.result
*124 CIRCUIT_1957\.int_memory_1\.GATES_28\.result
*125 CIRCUIT_1957\.int_memory_1\.GATES_29\.result
*126 CIRCUIT_1957\.int_memory_1\.GATES_3\.input2\[0\]
*127 CIRCUIT_1957\.int_memory_1\.GATES_3\.input2\[1\]
*128 CIRCUIT_1957\.int_memory_1\.GATES_3\.input2\[2\]
*129 CIRCUIT_1957\.int_memory_1\.GATES_3\.input2\[3\]
*130 CIRCUIT_1957\.int_memory_1\.GATES_30\.result
*131 CIRCUIT_1957\.int_memory_1\.GATES_31\.result
*132 CIRCUIT_1957\.int_memory_1\.GATES_32\.result
*133 CIRCUIT_1957\.int_memory_1\.GATES_33\.result
*134 CIRCUIT_1957\.int_memory_1\.GATES_4\.input2\[0\]
*135 CIRCUIT_1957\.int_memory_1\.GATES_4\.input2\[1\]
*136 CIRCUIT_1957\.int_memory_1\.GATES_4\.input2\[2\]
*137 CIRCUIT_1957\.int_memory_1\.GATES_4\.input2\[3\]
*138 CIRCUIT_1957\.int_memory_1\.GATES_49\.input2\[0\]
*139 CIRCUIT_1957\.int_memory_1\.GATES_49\.input2\[1\]
*140 CIRCUIT_1957\.int_memory_1\.GATES_49\.input2\[2\]
*141 CIRCUIT_1957\.int_memory_1\.GATES_49\.input2\[3\]
*142 CIRCUIT_1957\.int_memory_1\.GATES_5\.input2\[0\]
*143 CIRCUIT_1957\.int_memory_1\.GATES_5\.input2\[1\]
*144 CIRCUIT_1957\.int_memory_1\.GATES_5\.input2\[2\]
*145 CIRCUIT_1957\.int_memory_1\.GATES_5\.input2\[3\]
*146 CIRCUIT_1957\.int_memory_1\.GATES_50\.result
*147 CIRCUIT_1957\.int_memory_1\.GATES_51\.input2\[0\]
*148 CIRCUIT_1957\.int_memory_1\.GATES_51\.input2\[1\]
*149 CIRCUIT_1957\.int_memory_1\.GATES_51\.input2\[2\]
*150 CIRCUIT_1957\.int_memory_1\.GATES_51\.input2\[3\]
*151 CIRCUIT_1957\.int_memory_1\.GATES_53\.result
*152 CIRCUIT_1957\.int_memory_1\.GATES_6\.input2\[0\]
*153 CIRCUIT_1957\.int_memory_1\.GATES_6\.input2\[1\]
*154 CIRCUIT_1957\.int_memory_1\.GATES_6\.input2\[2\]
*155 CIRCUIT_1957\.int_memory_1\.GATES_6\.input2\[3\]
*156 CIRCUIT_1957\.int_memory_1\.GATES_7\.input2\[0\]
*157 CIRCUIT_1957\.int_memory_1\.GATES_7\.input2\[1\]
*158 CIRCUIT_1957\.int_memory_1\.GATES_7\.input2\[2\]
*159 CIRCUIT_1957\.int_memory_1\.GATES_7\.input2\[3\]
*160 CIRCUIT_1957\.int_memory_1\.GATES_8\.input2\[0\]
*161 CIRCUIT_1957\.int_memory_1\.GATES_8\.input2\[1\]
*162 CIRCUIT_1957\.int_memory_1\.GATES_8\.input2\[2\]
*163 CIRCUIT_1957\.int_memory_1\.GATES_8\.input2\[3\]
*164 CIRCUIT_1957\.int_memory_1\.div_1\.A0
*165 CIRCUIT_1957\.int_memory_1\.div_1\.A1
*166 CIRCUIT_1957\.int_memory_1\.div_1\.A2
*167 CIRCUIT_1957\.int_memory_1\.div_1\.A3
*168 CIRCUIT_1957\.int_memory_1\.div_1\.A4
*169 CIRCUIT_1957\.int_memory_1\.div_1\.A5
*170 CIRCUIT_1957\.int_memory_1\.div_1\.A6
*171 CIRCUIT_1957\.int_memory_1\.div_1\.A7
*172 CIRCUIT_1957\.int_memory_1\.div_1\.B0
*173 CIRCUIT_1957\.int_memory_1\.div_1\.B1
*174 CIRCUIT_1957\.int_memory_1\.div_1\.B2
*175 CIRCUIT_1957\.int_memory_1\.div_1\.B3
*176 CIRCUIT_1957\.int_memory_1\.mul2_1\.A0
*177 CIRCUIT_1957\.int_memory_1\.mul2_1\.A1
*178 CIRCUIT_1957\.int_memory_1\.mul2_1\.A2
*179 CIRCUIT_1957\.int_memory_1\.mul2_1\.A3
*180 CIRCUIT_1957\.int_memory_1\.mul2_1\.B0
*181 CIRCUIT_1957\.int_memory_1\.mul2_1\.B1
*182 CIRCUIT_1957\.int_memory_1\.mul2_1\.B2
*183 CIRCUIT_1957\.int_memory_1\.mul2_1\.B3
*184 _0000_
*185 _0001_
*186 _0002_
*187 _0003_
*188 _0004_
*189 _0005_
*190 _0006_
*191 _0007_
*192 _0008_
*193 _0009_
*194 _0010_
*195 _0011_
*196 _0012_
*197 _0013_
*198 _0014_
*199 _0015_
*200 _0016_
*201 _0017_
*202 _0018_
*203 _0027_
*204 _0028_
*205 _0029_
*206 _0030_
*207 _0031_
*208 _0032_
*209 _0033_
*210 _0034_
*211 _0035_
*212 _0036_
*213 _0037_
*214 _0038_
*215 _0039_
*216 _0040_
*217 _0041_
*218 _0042_
*219 _0043_
*220 _0044_
*221 _0045_
*222 _0046_
*223 _0047_
*224 _0048_
*225 _0049_
*226 _0050_
*227 _0051_
*228 _0052_
*229 _0053_
*230 _0054_
*231 _0055_
*232 _0056_
*233 _0057_
*234 _0058_
*235 _0059_
*236 _0060_
*237 _0061_
*238 _0062_
*239 _0063_
*240 _0064_
*241 _0065_
*242 _0066_
*243 _0067_
*244 _0068_
*245 _0069_
*246 _0070_
*247 _0071_
*248 _0072_
*249 _0073_
*250 _0074_
*251 _0075_
*252 _0076_
*253 _0077_
*254 _0078_
*255 _0079_
*256 _0080_
*257 _0081_
*258 _0082_
*259 _0083_
*260 _0084_
*261 _0085_
*262 _0086_
*263 _0087_
*264 _0088_
*265 _0089_
*266 _0090_
*267 _0091_
*268 _0092_
*269 _0093_
*270 _0094_
*271 _0095_
*272 _0096_
*273 _0097_
*274 _0098_
*275 _0099_
*276 _0100_
*277 _0101_
*278 _0102_
*279 _0103_
*280 _0104_
*281 _0105_
*282 _0106_
*283 _0107_
*284 _0108_
*285 _0109_
*286 _0110_
*287 _0111_
*288 _0112_
*289 _0113_
*290 _0114_
*291 _0115_
*292 _0116_
*293 _0117_
*294 _0118_
*295 _0119_
*296 _0120_
*297 _0121_
*298 _0122_
*299 _0123_
*300 _0124_
*301 _0125_
*302 _0126_
*303 _0127_
*304 _0128_
*305 _0129_
*306 _0130_
*307 _0131_
*308 _0132_
*309 _0133_
*310 _0134_
*311 _0135_
*312 _0136_
*313 _0137_
*314 _0138_
*315 _0139_
*316 _0140_
*317 _0141_
*318 _0142_
*319 _0143_
*320 _0144_
*321 _0145_
*322 _0146_
*323 _0147_
*324 _0148_
*325 _0149_
*326 _0150_
*327 _0151_
*328 _0152_
*329 _0153_
*330 _0154_
*331 _0155_
*332 _0156_
*333 _0157_
*334 _0158_
*335 _0159_
*336 _0160_
*337 _0161_
*338 _0162_
*339 _0163_
*340 _0164_
*341 _0165_
*342 _0166_
*343 _0167_
*344 _0168_
*345 _0169_
*346 _0170_
*347 _0171_
*348 _0172_
*349 _0173_
*350 _0174_
*351 _0175_
*352 _0176_
*353 _0177_
*354 _0178_
*355 _0179_
*356 _0180_
*357 _0181_
*358 _0182_
*359 _0183_
*360 _0184_
*361 _0185_
*362 _0186_
*363 _0187_
*364 _0188_
*365 _0189_
*366 _0190_
*367 _0191_
*368 _0192_
*369 _0193_
*370 _0194_
*371 _0195_
*372 _0196_
*373 _0197_
*374 _0198_
*375 _0199_
*376 _0200_
*377 _0201_
*378 _0202_
*379 _0203_
*380 _0204_
*381 _0205_
*382 _0206_
*383 _0207_
*384 _0208_
*385 _0209_
*386 _0210_
*387 _0211_
*388 _0212_
*389 _0213_
*390 _0214_
*391 _0215_
*392 _0216_
*393 _0217_
*394 _0218_
*395 _0219_
*396 _0220_
*397 _0221_
*398 _0222_
*399 _0223_
*400 _0224_
*401 _0225_
*402 _0226_
*403 _0227_
*404 _0228_
*405 _0229_
*406 _0230_
*407 _0231_
*408 _0232_
*409 _0233_
*410 _0234_
*411 _0235_
*412 _0236_
*413 _0237_
*414 _0238_
*415 _0239_
*416 _0240_
*417 _0241_
*418 _0242_
*419 _0243_
*420 _0244_
*421 _0245_
*422 _0246_
*423 _0247_
*424 _0248_
*425 _0249_
*426 _0250_
*427 _0251_
*428 _0252_
*429 _0253_
*430 _0254_
*431 _0255_
*432 _0256_
*433 _0257_
*434 _0258_
*435 _0259_
*436 _0260_
*437 _0261_
*438 _0262_
*439 _0263_
*440 _0264_
*441 _0265_
*442 _0266_
*443 _0267_
*444 _0268_
*445 _0269_
*446 _0270_
*447 _0271_
*448 _0272_
*449 _0273_
*450 _0274_
*451 _0275_
*452 _0276_
*453 _0277_
*454 _0278_
*455 _0279_
*456 _0280_
*457 _0281_
*458 _0282_
*459 _0283_
*460 _0284_
*461 _0285_
*462 _0286_
*463 _0287_
*464 _0288_
*465 _0289_
*466 _0290_
*467 _0291_
*468 _0292_
*469 _0293_
*470 _0294_
*471 _0295_
*472 _0296_
*473 _0297_
*474 _0298_
*475 _0299_
*476 _0300_
*477 _0301_
*478 _0302_
*479 _0303_
*480 _0304_
*481 _0305_
*482 _0306_
*483 _0307_
*484 _0308_
*485 _0309_
*486 _0310_
*487 _0311_
*488 _0312_
*489 _0313_
*490 _0314_
*491 _0315_
*492 _0316_
*493 _0317_
*494 _0318_
*495 _0319_
*496 _0320_
*497 _0321_
*498 _0322_
*499 _0323_
*500 _0324_
*501 _0325_
*502 _0326_
*503 _0327_
*504 _0328_
*505 _0329_
*506 _0330_
*507 _0331_
*508 _0332_
*509 _0333_
*510 _0334_
*511 _0335_
*512 _0336_
*513 _0337_
*514 _0338_
*515 _0339_
*516 _0340_
*517 _0341_
*518 _0342_
*519 _0343_
*520 _0344_
*521 _0345_
*522 _0346_
*523 _0347_
*524 _0348_
*525 _0349_
*526 _0350_
*527 _0351_
*528 _0352_
*529 _0353_
*530 _0354_
*531 _0355_
*532 _0356_
*533 _0357_
*534 _0358_
*535 _0359_
*536 _0360_
*537 _0361_
*538 _0362_
*539 _0363_
*540 _0364_
*541 _0365_
*542 _0366_
*543 _0367_
*544 _0368_
*545 _0369_
*546 _0370_
*547 _0371_
*548 _0372_
*549 _0373_
*550 _0374_
*551 _0375_
*552 _0376_
*553 _0377_
*554 _0378_
*555 _0379_
*556 _0380_
*557 _0381_
*558 _0382_
*559 _0383_
*560 _0384_
*561 _0385_
*562 _0386_
*563 _0387_
*564 _0388_
*565 _0389_
*566 _0390_
*567 _0391_
*568 _0392_
*569 _0393_
*570 _0394_
*571 _0395_
*572 _0396_
*573 _0397_
*574 _0398_
*575 _0399_
*576 _0400_
*577 _0401_
*578 _0402_
*579 _0403_
*580 _0404_
*581 _0405_
*582 _0406_
*583 _0407_
*584 _0408_
*585 _0409_
*586 _0410_
*587 _0411_
*588 _0412_
*589 _0413_
*590 _0414_
*591 _0415_
*592 _0416_
*593 _0417_
*594 _0418_
*595 _0419_
*596 _0420_
*597 _0421_
*598 _0422_
*599 _0423_
*600 _0424_
*601 _0425_
*602 _0426_
*603 _0427_
*604 _0428_
*605 _0429_
*606 _0430_
*607 _0431_
*608 _0432_
*609 _0433_
*610 _0434_
*611 _0435_
*612 _0436_
*613 _0437_
*614 _0438_
*615 _0439_
*616 _0440_
*617 _0441_
*618 _0442_
*619 _0443_
*620 _0444_
*621 _0445_
*622 _0446_
*623 _0447_
*624 _0448_
*625 _0449_
*626 _0450_
*627 _0451_
*628 _0452_
*629 _0453_
*630 _0454_
*631 _0455_
*632 _0456_
*633 _0457_
*634 _0458_
*635 _0459_
*636 _0460_
*637 _0461_
*638 _0462_
*639 _0463_
*640 _0464_
*641 clknet_0_CIRCUIT_1957\.int_memory_1\.GATES_21\.result
*642 clknet_0_CIRCUIT_1957\.int_memory_1\.GATES_22\.result
*643 clknet_0_CIRCUIT_1957\.int_memory_1\.GATES_23\.result
*644 clknet_0_CIRCUIT_1957\.int_memory_1\.GATES_24\.result
*645 clknet_0_CIRCUIT_1957\.int_memory_1\.GATES_25\.result
*646 clknet_0_CIRCUIT_1957\.int_memory_1\.GATES_26\.result
*647 clknet_0_CIRCUIT_1957\.int_memory_1\.GATES_27\.result
*648 clknet_0_CIRCUIT_1957\.int_memory_1\.GATES_28\.result
*649 clknet_0_CIRCUIT_1957\.int_memory_1\.GATES_29\.result
*650 clknet_0_CIRCUIT_1957\.int_memory_1\.GATES_30\.result
*651 clknet_0_CIRCUIT_1957\.int_memory_1\.GATES_31\.result
*652 clknet_0_CIRCUIT_1957\.int_memory_1\.GATES_32\.result
*653 clknet_0_CIRCUIT_1957\.int_memory_1\.GATES_33\.result
*654 clknet_0_CIRCUIT_1957\.int_memory_1\.GATES_50\.result
*655 clknet_0_CIRCUIT_1957\.int_memory_1\.GATES_53\.result
*656 clknet_0__0460_
*657 clknet_0_clk
*658 clknet_1_0__leaf_CIRCUIT_1957\.int_memory_1\.GATES_21\.result
*659 clknet_1_0__leaf_CIRCUIT_1957\.int_memory_1\.GATES_22\.result
*660 clknet_1_0__leaf_CIRCUIT_1957\.int_memory_1\.GATES_23\.result
*661 clknet_1_0__leaf_CIRCUIT_1957\.int_memory_1\.GATES_24\.result
*662 clknet_1_0__leaf_CIRCUIT_1957\.int_memory_1\.GATES_25\.result
*663 clknet_1_0__leaf_CIRCUIT_1957\.int_memory_1\.GATES_26\.result
*664 clknet_1_0__leaf_CIRCUIT_1957\.int_memory_1\.GATES_27\.result
*665 clknet_1_0__leaf_CIRCUIT_1957\.int_memory_1\.GATES_28\.result
*666 clknet_1_0__leaf_CIRCUIT_1957\.int_memory_1\.GATES_29\.result
*667 clknet_1_0__leaf_CIRCUIT_1957\.int_memory_1\.GATES_30\.result
*668 clknet_1_0__leaf_CIRCUIT_1957\.int_memory_1\.GATES_31\.result
*669 clknet_1_0__leaf_CIRCUIT_1957\.int_memory_1\.GATES_32\.result
*670 clknet_1_0__leaf_CIRCUIT_1957\.int_memory_1\.GATES_33\.result
*671 clknet_1_0__leaf_CIRCUIT_1957\.int_memory_1\.GATES_50\.result
*672 clknet_1_0__leaf_CIRCUIT_1957\.int_memory_1\.GATES_53\.result
*673 clknet_1_0__leaf__0460_
*674 clknet_1_1__leaf_CIRCUIT_1957\.int_memory_1\.GATES_21\.result
*675 clknet_1_1__leaf_CIRCUIT_1957\.int_memory_1\.GATES_22\.result
*676 clknet_1_1__leaf_CIRCUIT_1957\.int_memory_1\.GATES_23\.result
*677 clknet_1_1__leaf_CIRCUIT_1957\.int_memory_1\.GATES_24\.result
*678 clknet_1_1__leaf_CIRCUIT_1957\.int_memory_1\.GATES_25\.result
*679 clknet_1_1__leaf_CIRCUIT_1957\.int_memory_1\.GATES_26\.result
*680 clknet_1_1__leaf_CIRCUIT_1957\.int_memory_1\.GATES_27\.result
*681 clknet_1_1__leaf_CIRCUIT_1957\.int_memory_1\.GATES_28\.result
*682 clknet_1_1__leaf_CIRCUIT_1957\.int_memory_1\.GATES_29\.result
*683 clknet_1_1__leaf_CIRCUIT_1957\.int_memory_1\.GATES_30\.result
*684 clknet_1_1__leaf_CIRCUIT_1957\.int_memory_1\.GATES_31\.result
*685 clknet_1_1__leaf_CIRCUIT_1957\.int_memory_1\.GATES_32\.result
*686 clknet_1_1__leaf_CIRCUIT_1957\.int_memory_1\.GATES_33\.result
*687 clknet_1_1__leaf_CIRCUIT_1957\.int_memory_1\.GATES_50\.result
*688 clknet_1_1__leaf_CIRCUIT_1957\.int_memory_1\.GATES_53\.result
*689 clknet_1_1__leaf__0460_
*690 clknet_2_0__leaf_clk
*691 clknet_2_1__leaf_clk
*692 clknet_2_2__leaf_clk
*693 clknet_2_3__leaf_clk
*694 net1
*695 net10
*696 net11
*697 net12
*698 net13
*699 net14
*700 net15
*701 net16
*702 net17
*703 net18
*704 net19
*705 net2
*706 net20
*707 net21
*708 net22
*709 net23
*710 net24
*711 net25
*712 net26
*713 net27
*714 net28
*715 net29
*716 net3
*717 net30
*718 net31
*719 net32
*720 net33
*721 net34
*722 net35
*723 net36
*724 net37
*725 net38
*726 net39
*727 net4
*728 net40
*729 net41
*730 net42
*731 net43
*732 net44
*733 net45
*734 net46
*735 net47
*736 net48
*737 net49
*738 net5
*739 net50
*740 net51
*741 net52
*742 net53
*743 net54
*744 net55
*745 net56
*746 net6
*747 net69
*748 net7
*749 net70
*750 net71
*751 net72
*752 net73
*753 net74
*754 net75
*755 net76
*756 net8
*757 net9
*758 FILLER_0_103
*759 FILLER_0_11
*760 FILLER_0_111
*761 FILLER_0_113
*762 FILLER_0_118
*763 FILLER_0_126
*764 FILLER_0_131
*765 FILLER_0_139
*766 FILLER_0_141
*767 FILLER_0_149
*768 FILLER_0_15
*769 FILLER_0_155
*770 FILLER_0_162
*771 FILLER_0_169
*772 FILLER_0_177
*773 FILLER_0_183
*774 FILLER_0_190
*775 FILLER_0_197
*776 FILLER_0_205
*777 FILLER_0_211
*778 FILLER_0_218
*779 FILLER_0_22
*780 FILLER_0_225
*781 FILLER_0_233
*782 FILLER_0_239
*783 FILLER_0_246
*784 FILLER_0_253
*785 FILLER_0_261
*786 FILLER_0_267
*787 FILLER_0_274
*788 FILLER_0_281
*789 FILLER_0_289
*790 FILLER_0_29
*791 FILLER_0_295
*792 FILLER_0_3
*793 FILLER_0_302
*794 FILLER_0_309
*795 FILLER_0_314
*796 FILLER_0_322
*797 FILLER_0_327
*798 FILLER_0_335
*799 FILLER_0_337
*800 FILLER_0_342
*801 FILLER_0_350
*802 FILLER_0_355
*803 FILLER_0_362
*804 FILLER_0_37
*805 FILLER_0_43
*806 FILLER_0_50
*807 FILLER_0_57
*808 FILLER_0_62
*809 FILLER_0_70
*810 FILLER_0_75
*811 FILLER_0_83
*812 FILLER_0_85
*813 FILLER_0_90
*814 FILLER_0_98
*815 FILLER_10_111
*816 FILLER_10_123
*817 FILLER_10_135
*818 FILLER_10_139
*819 FILLER_10_141
*820 FILLER_10_15
*821 FILLER_10_153
*822 FILLER_10_157
*823 FILLER_10_178
*824 FILLER_10_186
*825 FILLER_10_194
*826 FILLER_10_197
*827 FILLER_10_205
*828 FILLER_10_227
*829 FILLER_10_247
*830 FILLER_10_251
*831 FILLER_10_253
*832 FILLER_10_27
*833 FILLER_10_275
*834 FILLER_10_29
*835 FILLER_10_299
*836 FILLER_10_3
*837 FILLER_10_307
*838 FILLER_10_309
*839 FILLER_10_317
*840 FILLER_10_325
*841 FILLER_10_347
*842 FILLER_10_359
*843 FILLER_10_363
*844 FILLER_10_41
*845 FILLER_10_53
*846 FILLER_10_61
*847 FILLER_10_69
*848 FILLER_10_81
*849 FILLER_10_85
*850 FILLER_10_93
*851 FILLER_10_99
*852 FILLER_11_105
*853 FILLER_11_111
*854 FILLER_11_113
*855 FILLER_11_125
*856 FILLER_11_137
*857 FILLER_11_149
*858 FILLER_11_15
*859 FILLER_11_156
*860 FILLER_11_166
*861 FILLER_11_169
*862 FILLER_11_175
*863 FILLER_11_182
*864 FILLER_11_206
*865 FILLER_11_217
*866 FILLER_11_223
*867 FILLER_11_225
*868 FILLER_11_23
*869 FILLER_11_233
*870 FILLER_11_241
*871 FILLER_11_261
*872 FILLER_11_27
*873 FILLER_11_271
*874 FILLER_11_279
*875 FILLER_11_281
*876 FILLER_11_293
*877 FILLER_11_3
*878 FILLER_11_312
*879 FILLER_11_322
*880 FILLER_11_334
*881 FILLER_11_337
*882 FILLER_11_34
*883 FILLER_11_355
*884 FILLER_11_363
*885 FILLER_11_46
*886 FILLER_11_54
*887 FILLER_11_57
*888 FILLER_11_69
*889 FILLER_11_93
*890 FILLER_12_121
*891 FILLER_12_133
*892 FILLER_12_139
*893 FILLER_12_141
*894 FILLER_12_15
*895 FILLER_12_153
*896 FILLER_12_173
*897 FILLER_12_183
*898 FILLER_12_194
*899 FILLER_12_197
*900 FILLER_12_203
*901 FILLER_12_220
*902 FILLER_12_232
*903 FILLER_12_244
*904 FILLER_12_25
*905 FILLER_12_253
*906 FILLER_12_261
*907 FILLER_12_273
*908 FILLER_12_285
*909 FILLER_12_29
*910 FILLER_12_297
*911 FILLER_12_3
*912 FILLER_12_306
*913 FILLER_12_309
*914 FILLER_12_321
*915 FILLER_12_333
*916 FILLER_12_355
*917 FILLER_12_363
*918 FILLER_12_37
*919 FILLER_12_49
*920 FILLER_12_61
*921 FILLER_12_73
*922 FILLER_12_81
*923 FILLER_12_85
*924 FILLER_12_97
*925 FILLER_13_106
*926 FILLER_13_113
*927 FILLER_13_131
*928 FILLER_13_143
*929 FILLER_13_15
*930 FILLER_13_155
*931 FILLER_13_167
*932 FILLER_13_169
*933 FILLER_13_177
*934 FILLER_13_189
*935 FILLER_13_197
*936 FILLER_13_206
*937 FILLER_13_220
*938 FILLER_13_225
*939 FILLER_13_233
*940 FILLER_13_245
*941 FILLER_13_257
*942 FILLER_13_269
*943 FILLER_13_277
*944 FILLER_13_28
*945 FILLER_13_281
*946 FILLER_13_290
*947 FILLER_13_3
*948 FILLER_13_302
*949 FILLER_13_314
*950 FILLER_13_326
*951 FILLER_13_334
*952 FILLER_13_337
*953 FILLER_13_360
*954 FILLER_13_38
*955 FILLER_13_47
*956 FILLER_13_55
*957 FILLER_13_57
*958 FILLER_13_65
*959 FILLER_13_82
*960 FILLER_13_94
*961 FILLER_14_109
*962 FILLER_14_126
*963 FILLER_14_13
*964 FILLER_14_138
*965 FILLER_14_141
*966 FILLER_14_153
*967 FILLER_14_165
*968 FILLER_14_177
*969 FILLER_14_189
*970 FILLER_14_195
*971 FILLER_14_197
*972 FILLER_14_209
*973 FILLER_14_213
*974 FILLER_14_234
*975 FILLER_14_246
*976 FILLER_14_25
*977 FILLER_14_253
*978 FILLER_14_267
*979 FILLER_14_29
*980 FILLER_14_291
*981 FILLER_14_3
*982 FILLER_14_303
*983 FILLER_14_307
*984 FILLER_14_309
*985 FILLER_14_318
*986 FILLER_14_326
*987 FILLER_14_347
*988 FILLER_14_357
*989 FILLER_14_36
*990 FILLER_14_363
*991 FILLER_14_44
*992 FILLER_14_62
*993 FILLER_14_82
*994 FILLER_14_85
*995 FILLER_14_9
*996 FILLER_14_97
*997 FILLER_15_100
*998 FILLER_15_113
*999 FILLER_15_121
*1000 FILLER_15_140
*1001 FILLER_15_15
*1002 FILLER_15_152
*1003 FILLER_15_164
*1004 FILLER_15_169
*1005 FILLER_15_181
*1006 FILLER_15_185
*1007 FILLER_15_19
*1008 FILLER_15_206
*1009 FILLER_15_218
*1010 FILLER_15_225
*1011 FILLER_15_237
*1012 FILLER_15_249
*1013 FILLER_15_27
*1014 FILLER_15_271
*1015 FILLER_15_279
*1016 FILLER_15_281
*1017 FILLER_15_3
*1018 FILLER_15_301
*1019 FILLER_15_313
*1020 FILLER_15_325
*1021 FILLER_15_333
*1022 FILLER_15_337
*1023 FILLER_15_34
*1024 FILLER_15_355
*1025 FILLER_15_363
*1026 FILLER_15_46
*1027 FILLER_15_54
*1028 FILLER_15_57
*1029 FILLER_15_78
*1030 FILLER_16_116
*1031 FILLER_16_138
*1032 FILLER_16_141
*1033 FILLER_16_15
*1034 FILLER_16_153
*1035 FILLER_16_165
*1036 FILLER_16_169
*1037 FILLER_16_175
*1038 FILLER_16_184
*1039 FILLER_16_197
*1040 FILLER_16_203
*1041 FILLER_16_212
*1042 FILLER_16_222
*1043 FILLER_16_234
*1044 FILLER_16_242
*1045 FILLER_16_250
*1046 FILLER_16_253
*1047 FILLER_16_265
*1048 FILLER_16_27
*1049 FILLER_16_29
*1050 FILLER_16_291
*1051 FILLER_16_3
*1052 FILLER_16_303
*1053 FILLER_16_307
*1054 FILLER_16_309
*1055 FILLER_16_317
*1056 FILLER_16_345
*1057 FILLER_16_357
*1058 FILLER_16_36
*1059 FILLER_16_363
*1060 FILLER_16_64
*1061 FILLER_16_76
*1062 FILLER_16_85
*1063 FILLER_16_97
*1064 FILLER_17_105
*1065 FILLER_17_111
*1066 FILLER_17_113
*1067 FILLER_17_125
*1068 FILLER_17_137
*1069 FILLER_17_141
*1070 FILLER_17_15
*1071 FILLER_17_151
*1072 FILLER_17_166
*1073 FILLER_17_169
*1074 FILLER_17_177
*1075 FILLER_17_187
*1076 FILLER_17_199
*1077 FILLER_17_205
*1078 FILLER_17_222
*1079 FILLER_17_225
*1080 FILLER_17_238
*1081 FILLER_17_246
*1082 FILLER_17_263
*1083 FILLER_17_27
*1084 FILLER_17_273
*1085 FILLER_17_279
*1086 FILLER_17_281
*1087 FILLER_17_3
*1088 FILLER_17_301
*1089 FILLER_17_313
*1090 FILLER_17_325
*1091 FILLER_17_332
*1092 FILLER_17_337
*1093 FILLER_17_345
*1094 FILLER_17_357
*1095 FILLER_17_363
*1096 FILLER_17_39
*1097 FILLER_17_51
*1098 FILLER_17_55
*1099 FILLER_17_57
*1100 FILLER_17_69
*1101 FILLER_17_81
*1102 FILLER_17_93
*1103 FILLER_18_109
*1104 FILLER_18_121
*1105 FILLER_18_133
*1106 FILLER_18_139
*1107 FILLER_18_141
*1108 FILLER_18_145
*1109 FILLER_18_15
*1110 FILLER_18_157
*1111 FILLER_18_172
*1112 FILLER_18_187
*1113 FILLER_18_19
*1114 FILLER_18_195
*1115 FILLER_18_197
*1116 FILLER_18_205
*1117 FILLER_18_213
*1118 FILLER_18_234
*1119 FILLER_18_245
*1120 FILLER_18_25
*1121 FILLER_18_251
*1122 FILLER_18_253
*1123 FILLER_18_261
*1124 FILLER_18_273
*1125 FILLER_18_285
*1126 FILLER_18_29
*1127 FILLER_18_291
*1128 FILLER_18_3
*1129 FILLER_18_300
*1130 FILLER_18_309
*1131 FILLER_18_321
*1132 FILLER_18_333
*1133 FILLER_18_345
*1134 FILLER_18_357
*1135 FILLER_18_363
*1136 FILLER_18_41
*1137 FILLER_18_53
*1138 FILLER_18_65
*1139 FILLER_18_77
*1140 FILLER_18_83
*1141 FILLER_18_85
*1142 FILLER_18_97
*1143 FILLER_19_105
*1144 FILLER_19_111
*1145 FILLER_19_113
*1146 FILLER_19_125
*1147 FILLER_19_149
*1148 FILLER_19_166
*1149 FILLER_19_169
*1150 FILLER_19_177
*1151 FILLER_19_188
*1152 FILLER_19_197
*1153 FILLER_19_201
*1154 FILLER_19_218
*1155 FILLER_19_225
*1156 FILLER_19_229
*1157 FILLER_19_238
*1158 FILLER_19_250
*1159 FILLER_19_262
*1160 FILLER_19_274
*1161 FILLER_19_281
*1162 FILLER_19_292
*1163 FILLER_19_3
*1164 FILLER_19_302
*1165 FILLER_19_31
*1166 FILLER_19_312
*1167 FILLER_19_324
*1168 FILLER_19_337
*1169 FILLER_19_345
*1170 FILLER_19_357
*1171 FILLER_19_363
*1172 FILLER_19_38
*1173 FILLER_19_50
*1174 FILLER_19_57
*1175 FILLER_19_69
*1176 FILLER_19_93
*1177 FILLER_1_105
*1178 FILLER_1_111
*1179 FILLER_1_113
*1180 FILLER_1_121
*1181 FILLER_1_126
*1182 FILLER_1_138
*1183 FILLER_1_149
*1184 FILLER_1_15
*1185 FILLER_1_156
*1186 FILLER_1_169
*1187 FILLER_1_181
*1188 FILLER_1_193
*1189 FILLER_1_199
*1190 FILLER_1_203
*1191 FILLER_1_211
*1192 FILLER_1_219
*1193 FILLER_1_223
*1194 FILLER_1_225
*1195 FILLER_1_237
*1196 FILLER_1_249
*1197 FILLER_1_27
*1198 FILLER_1_272
*1199 FILLER_1_281
*1200 FILLER_1_289
*1201 FILLER_1_297
*1202 FILLER_1_3
*1203 FILLER_1_319
*1204 FILLER_1_331
*1205 FILLER_1_335
*1206 FILLER_1_337
*1207 FILLER_1_349
*1208 FILLER_1_361
*1209 FILLER_1_39
*1210 FILLER_1_51
*1211 FILLER_1_55
*1212 FILLER_1_57
*1213 FILLER_1_69
*1214 FILLER_1_81
*1215 FILLER_1_93
*1216 FILLER_20_108
*1217 FILLER_20_11
*1218 FILLER_20_137
*1219 FILLER_20_141
*1220 FILLER_20_149
*1221 FILLER_20_16
*1222 FILLER_20_160
*1223 FILLER_20_171
*1224 FILLER_20_179
*1225 FILLER_20_189
*1226 FILLER_20_195
*1227 FILLER_20_197
*1228 FILLER_20_205
*1229 FILLER_20_228
*1230 FILLER_20_240
*1231 FILLER_20_253
*1232 FILLER_20_26
*1233 FILLER_20_265
*1234 FILLER_20_29
*1235 FILLER_20_291
*1236 FILLER_20_3
*1237 FILLER_20_303
*1238 FILLER_20_307
*1239 FILLER_20_309
*1240 FILLER_20_321
*1241 FILLER_20_347
*1242 FILLER_20_359
*1243 FILLER_20_363
*1244 FILLER_20_40
*1245 FILLER_20_44
*1246 FILLER_20_50
*1247 FILLER_20_62
*1248 FILLER_20_74
*1249 FILLER_20_82
*1250 FILLER_20_85
*1251 FILLER_21_108
*1252 FILLER_21_113
*1253 FILLER_21_137
*1254 FILLER_21_146
*1255 FILLER_21_154
*1256 FILLER_21_166
*1257 FILLER_21_169
*1258 FILLER_21_18
*1259 FILLER_21_180
*1260 FILLER_21_198
*1261 FILLER_21_218
*1262 FILLER_21_225
*1263 FILLER_21_234
*1264 FILLER_21_242
*1265 FILLER_21_254
*1266 FILLER_21_261
*1267 FILLER_21_273
*1268 FILLER_21_279
*1269 FILLER_21_281
*1270 FILLER_21_293
*1271 FILLER_21_299
*1272 FILLER_21_3
*1273 FILLER_21_30
*1274 FILLER_21_306
*1275 FILLER_21_316
*1276 FILLER_21_334
*1277 FILLER_21_337
*1278 FILLER_21_358
*1279 FILLER_21_54
*1280 FILLER_21_57
*1281 FILLER_21_65
*1282 FILLER_21_77
*1283 FILLER_21_89
*1284 FILLER_21_96
*1285 FILLER_22_108
*1286 FILLER_22_120
*1287 FILLER_22_131
*1288 FILLER_22_139
*1289 FILLER_22_141
*1290 FILLER_22_15
*1291 FILLER_22_153
*1292 FILLER_22_177
*1293 FILLER_22_186
*1294 FILLER_22_194
*1295 FILLER_22_197
*1296 FILLER_22_205
*1297 FILLER_22_21
*1298 FILLER_22_229
*1299 FILLER_22_241
*1300 FILLER_22_249
*1301 FILLER_22_253
*1302 FILLER_22_27
*1303 FILLER_22_271
*1304 FILLER_22_29
*1305 FILLER_22_291
*1306 FILLER_22_3
*1307 FILLER_22_301
*1308 FILLER_22_307
*1309 FILLER_22_309
*1310 FILLER_22_330
*1311 FILLER_22_353
*1312 FILLER_22_361
*1313 FILLER_22_41
*1314 FILLER_22_53
*1315 FILLER_22_60
*1316 FILLER_22_69
*1317 FILLER_22_82
*1318 FILLER_22_85
*1319 FILLER_22_96
*1320 FILLER_23_110
*1321 FILLER_23_113
*1322 FILLER_23_125
*1323 FILLER_23_137
*1324 FILLER_23_149
*1325 FILLER_23_157
*1326 FILLER_23_166
*1327 FILLER_23_169
*1328 FILLER_23_182
*1329 FILLER_23_206
*1330 FILLER_23_216
*1331 FILLER_23_225
*1332 FILLER_23_233
*1333 FILLER_23_245
*1334 FILLER_23_265
*1335 FILLER_23_27
*1336 FILLER_23_277
*1337 FILLER_23_281
*1338 FILLER_23_293
*1339 FILLER_23_3
*1340 FILLER_23_305
*1341 FILLER_23_309
*1342 FILLER_23_314
*1343 FILLER_23_326
*1344 FILLER_23_334
*1345 FILLER_23_337
*1346 FILLER_23_34
*1347 FILLER_23_359
*1348 FILLER_23_363
*1349 FILLER_23_42
*1350 FILLER_23_52
*1351 FILLER_23_57
*1352 FILLER_23_69
*1353 FILLER_23_81
*1354 FILLER_23_94
*1355 FILLER_24_110
*1356 FILLER_24_122
*1357 FILLER_24_127
*1358 FILLER_24_138
*1359 FILLER_24_141
*1360 FILLER_24_149
*1361 FILLER_24_15
*1362 FILLER_24_155
*1363 FILLER_24_159
*1364 FILLER_24_169
*1365 FILLER_24_177
*1366 FILLER_24_187
*1367 FILLER_24_195
*1368 FILLER_24_197
*1369 FILLER_24_209
*1370 FILLER_24_21
*1371 FILLER_24_213
*1372 FILLER_24_234
*1373 FILLER_24_242
*1374 FILLER_24_250
*1375 FILLER_24_253
*1376 FILLER_24_261
*1377 FILLER_24_27
*1378 FILLER_24_282
*1379 FILLER_24_29
*1380 FILLER_24_290
*1381 FILLER_24_299
*1382 FILLER_24_3
*1383 FILLER_24_307
*1384 FILLER_24_309
*1385 FILLER_24_321
*1386 FILLER_24_347
*1387 FILLER_24_357
*1388 FILLER_24_363
*1389 FILLER_24_41
*1390 FILLER_24_48
*1391 FILLER_24_57
*1392 FILLER_24_64
*1393 FILLER_24_75
*1394 FILLER_24_83
*1395 FILLER_24_85
*1396 FILLER_24_90
*1397 FILLER_24_94
*1398 FILLER_25_105
*1399 FILLER_25_111
*1400 FILLER_25_113
*1401 FILLER_25_125
*1402 FILLER_25_131
*1403 FILLER_25_136
*1404 FILLER_25_146
*1405 FILLER_25_15
*1406 FILLER_25_166
*1407 FILLER_25_169
*1408 FILLER_25_178
*1409 FILLER_25_206
*1410 FILLER_25_218
*1411 FILLER_25_225
*1412 FILLER_25_235
*1413 FILLER_25_241
*1414 FILLER_25_262
*1415 FILLER_25_27
*1416 FILLER_25_270
*1417 FILLER_25_278
*1418 FILLER_25_281
*1419 FILLER_25_293
*1420 FILLER_25_3
*1421 FILLER_25_303
*1422 FILLER_25_310
*1423 FILLER_25_322
*1424 FILLER_25_334
*1425 FILLER_25_337
*1426 FILLER_25_356
*1427 FILLER_25_39
*1428 FILLER_25_45
*1429 FILLER_25_52
*1430 FILLER_25_57
*1431 FILLER_25_62
*1432 FILLER_25_70
*1433 FILLER_25_93
*1434 FILLER_26_100
*1435 FILLER_26_112
*1436 FILLER_26_125
*1437 FILLER_26_137
*1438 FILLER_26_141
*1439 FILLER_26_15
*1440 FILLER_26_150
*1441 FILLER_26_170
*1442 FILLER_26_183
*1443 FILLER_26_192
*1444 FILLER_26_197
*1445 FILLER_26_215
*1446 FILLER_26_223
*1447 FILLER_26_235
*1448 FILLER_26_247
*1449 FILLER_26_251
*1450 FILLER_26_253
*1451 FILLER_26_26
*1452 FILLER_26_271
*1453 FILLER_26_281
*1454 FILLER_26_29