*SPEF "ieee 1481-1999"
*DESIGN "tholin_avalonsemi_5401"
*DATE "11:11:11 Fri 11 11, 1111"
*VENDOR "OpenRCX"
*PROGRAM "Parallel Extraction"
*VERSION "1.0"
*DESIGN_FLOW "NAME_SCOPE LOCAL" "PIN_CAP NONE"
*DIVIDER /
*DELIMITER :
*BUS_DELIMITER []
*T_UNIT 1 NS
*C_UNIT 1 PF
*R_UNIT 1 OHM
*L_UNIT 1 HENRY

*NAME_MAP
*1 clk
*2 io_in[0]
*3 io_in[1]
*4 io_in[2]
*5 io_in[3]
*6 io_in[4]
*7 io_in[5]
*8 io_in[6]
*9 io_in[7]
*10 io_in[8]
*11 io_in[9]
*12 net67
*13 io_out[0]
*14 io_out[10]
*15 io_out[11]
*16 io_out[12]
*17 io_out[13]
*18 io_out[14]
*19 io_out[15]
*20 io_out[16]
*21 io_out[17]
*22 io_out[18]
*23 io_out[19]
*24 io_out[1]
*25 io_out[20]
*26 io_out[21]
*27 net63
*28 net64
*29 net65
*30 net66
*31 net68
*32 io_out[2]
*33 io_out[3]
*34 net57
*35 net58
*36 net59
*37 net60
*38 net61
*39 net62
*40 rst
*43 CIRCUIT_1957\.D0
*44 CIRCUIT_1957\.D1
*45 CIRCUIT_1957\.D2
*46 CIRCUIT_1957\.D3
*47 CIRCUIT_1957\.GATES_10\.result
*48 CIRCUIT_1957\.GATES_27\.result
*49 CIRCUIT_1957\.GATES_28\.result
*50 CIRCUIT_1957\.GATES_30\.result
*51 CIRCUIT_1957\.GATES_33\.input2
*52 CIRCUIT_1957\.GATES_35\.result
*53 CIRCUIT_1957\.GATES_38\.result
*54 CIRCUIT_1957\.GATES_39\.result
*55 CIRCUIT_1957\.GATES_40\.result
*56 CIRCUIT_1957\.GATES_41\.result
*57 CIRCUIT_1957\.GATES_42\.result
*58 CIRCUIT_1957\.GATES_53\.result
*59 CIRCUIT_1957\.GATES_60\.result
*60 CIRCUIT_1957\.GATES_9\.result
*61 CIRCUIT_1957\.MEMORY_62\.d
*62 CIRCUIT_1957\.MEMORY_62\.s_currentState
*63 CIRCUIT_1957\.MEMORY_63\.d
*64 CIRCUIT_1957\.MEMORY_63\.s_currentState
*65 CIRCUIT_1957\.MEMORY_64\.d
*66 CIRCUIT_1957\.MEMORY_64\.s_currentState
*67 CIRCUIT_1957\.MEMORY_65\.d
*68 CIRCUIT_1957\.MEMORY_65\.s_currentState
*69 CIRCUIT_1957\.MEMORY_66\.d
*70 CIRCUIT_1957\.MEMORY_66\.s_currentState
*71 CIRCUIT_1957\.MEMORY_67\.d
*72 CIRCUIT_1957\.MEMORY_67\.s_currentState
*73 CIRCUIT_1957\.MEMORY_68\.s_currentState
*74 CIRCUIT_1957\.MEMORY_69\.s_currentState
*75 CIRCUIT_1957\.MEMORY_70\.s_currentState
*76 CIRCUIT_1957\.MEMORY_71\.s_currentState
*77 CIRCUIT_1957\.MEMORY_72\.s_currentState
*78 CIRCUIT_1957\.MEMORY_73\.s_currentState
*79 CIRCUIT_1957\.MEMORY_74\.s_currentState
*80 CIRCUIT_1957\.MEMORY_75\.s_currentState
*81 CIRCUIT_1957\.MEMORY_76\.s_currentState
*82 CIRCUIT_1957\.MEMORY_77\.s_currentState
*83 CIRCUIT_1957\.MEMORY_78\.s_currentState
*84 CIRCUIT_1957\.MEMORY_79\.s_currentState
*85 CIRCUIT_1957\.MEMORY_80\.s_currentState
*86 CIRCUIT_1957\.MEMORY_81\.s_currentState
*87 CIRCUIT_1957\.MEMORY_82\.s_currentState
*88 CIRCUIT_1957\.MEMORY_83\.s_currentState
*89 CIRCUIT_1957\.MEMORY_84\.s_currentState
*90 CIRCUIT_1957\.MEMORY_85\.s_currentState
*91 CIRCUIT_1957\.MEMORY_86\.s_currentState
*92 CIRCUIT_1957\.MEMORY_87\.s_currentState
*93 CIRCUIT_1957\.MEMORY_88\.s_currentState
*94 CIRCUIT_1957\.clock_gen_2_1\.CLK1
*95 CIRCUIT_1957\.clock_gen_2_1\.GATES_1\.input2
*96 CIRCUIT_1957\.clock_gen_2_1\.GATES_3\.result
*97 CIRCUIT_1957\.clock_gen_2_1\.MEMORY_4\.d
*98 CIRCUIT_1957\.clock_gen_2_1\.MEMORY_4\.s_currentState
*99 CIRCUIT_1957\.clock_gen_2_1\.MEMORY_5\.d
*100 CIRCUIT_1957\.clock_gen_2_1\.MEMORY_5\.s_currentState
*101 CIRCUIT_1957\.clock_gen_2_1\.MEMORY_6\.s_currentState
*102 CIRCUIT_1957\.dest_reg_sel_new_1\.GATES_14\.input1
*103 CIRCUIT_1957\.dest_reg_sel_new_1\.GATES_14\.input2
*104 CIRCUIT_1957\.dest_reg_sel_new_1\.GATES_26\.result
*105 CIRCUIT_1957\.inst_dec_1\.MEMORY_21\.s_currentState
*106 CIRCUIT_1957\.inst_dec_1\.MEMORY_22\.s_currentState
*107 CIRCUIT_1957\.inst_dec_1\.MEMORY_23\.s_currentState
*108 CIRCUIT_1957\.inst_dec_1\.MEMORY_24\.s_currentState
*109 CIRCUIT_1957\.int_memory_1\.GATES_1\.input2\[0\]
*110 CIRCUIT_1957\.int_memory_1\.GATES_1\.input2\[1\]
*111 CIRCUIT_1957\.int_memory_1\.GATES_1\.input2\[2\]
*112 CIRCUIT_1957\.int_memory_1\.GATES_1\.input2\[3\]
*113 CIRCUIT_1957\.int_memory_1\.GATES_2\.input2\[0\]
*114 CIRCUIT_1957\.int_memory_1\.GATES_2\.input2\[1\]
*115 CIRCUIT_1957\.int_memory_1\.GATES_2\.input2\[2\]
*116 CIRCUIT_1957\.int_memory_1\.GATES_2\.input2\[3\]
*117 CIRCUIT_1957\.int_memory_1\.GATES_21\.result
*118 CIRCUIT_1957\.int_memory_1\.GATES_22\.result
*119 CIRCUIT_1957\.int_memory_1\.GATES_23\.result
*120 CIRCUIT_1957\.int_memory_1\.GATES_24\.result
*121 CIRCUIT_1957\.int_memory_1\.GATES_25\.result
*122 CIRCUIT_1957\.int_memory_1\.GATES_26\.result
*123 CIRCUIT_1957\.int_memory_1\.GATES_27\.result
*124 CIRCUIT_1957\.int_memory_1\.GATES_28\.result
*125 CIRCUIT_1957\.int_memory_1\.GATES_29\.result
*126 CIRCUIT_1957\.int_memory_1\.GATES_3\.input2\[0\]
*127 CIRCUIT_1957\.int_memory_1\.GATES_3\.input2\[1\]
*128 CIRCUIT_1957\.int_memory_1\.GATES_3\.input2\[2\]
*129 CIRCUIT_1957\.int_memory_1\.GATES_3\.input2\[3\]
*130 CIRCUIT_1957\.int_memory_1\.GATES_30\.result
*131 CIRCUIT_1957\.int_memory_1\.GATES_31\.result
*132 CIRCUIT_1957\.int_memory_1\.GATES_32\.result
*133 CIRCUIT_1957\.int_memory_1\.GATES_33\.result
*134 CIRCUIT_1957\.int_memory_1\.GATES_4\.input2\[0\]
*135 CIRCUIT_1957\.int_memory_1\.GATES_4\.input2\[1\]
*136 CIRCUIT_1957\.int_memory_1\.GATES_4\.input2\[2\]
*137 CIRCUIT_1957\.int_memory_1\.GATES_4\.input2\[3\]
*138 CIRCUIT_1957\.int_memory_1\.GATES_49\.input2\[0\]
*139 CIRCUIT_1957\.int_memory_1\.GATES_49\.input2\[1\]
*140 CIRCUIT_1957\.int_memory_1\.GATES_49\.input2\[2\]
*141 CIRCUIT_1957\.int_memory_1\.GATES_49\.input2\[3\]
*142 CIRCUIT_1957\.int_memory_1\.GATES_5\.input2\[0\]
*143 CIRCUIT_1957\.int_memory_1\.GATES_5\.input2\[1\]
*144 CIRCUIT_1957\.int_memory_1\.GATES_5\.input2\[2\]
*145 CIRCUIT_1957\.int_memory_1\.GATES_5\.input2\[3\]
*146 CIRCUIT_1957\.int_memory_1\.GATES_50\.result
*147 CIRCUIT_1957\.int_memory_1\.GATES_51\.input2\[0\]
*148 CIRCUIT_1957\.int_memory_1\.GATES_51\.input2\[1\]
*149 CIRCUIT_1957\.int_memory_1\.GATES_51\.input2\[2\]
*150 CIRCUIT_1957\.int_memory_1\.GATES_51\.input2\[3\]
*151 CIRCUIT_1957\.int_memory_1\.GATES_53\.result
*152 CIRCUIT_1957\.int_memory_1\.GATES_6\.input2\[0\]
*153 CIRCUIT_1957\.int_memory_1\.GATES_6\.input2\[1\]
*154 CIRCUIT_1957\.int_memory_1\.GATES_6\.input2\[2\]
*155 CIRCUIT_1957\.int_memory_1\.GATES_6\.input2\[3\]
*156 CIRCUIT_1957\.int_memory_1\.GATES_7\.input2\[0\]
*157 CIRCUIT_1957\.int_memory_1\.GATES_7\.input2\[1\]
*158 CIRCUIT_1957\.int_memory_1\.GATES_7\.input2\[2\]
*159 CIRCUIT_1957\.int_memory_1\.GATES_7\.input2\[3\]
*160 CIRCUIT_1957\.int_memory_1\.GATES_8\.input2\[0\]
*161 CIRCUIT_1957\.int_memory_1\.GATES_8\.input2\[1\]
*162 CIRCUIT_1957\.int_memory_1\.GATES_8\.input2\[2\]
*163 CIRCUIT_1957\.int_memory_1\.GATES_8\.input2\[3\]
*164 CIRCUIT_1957\.int_memory_1\.div_1\.A0
*165 CIRCUIT_1957\.int_memory_1\.div_1\.A1
*166 CIRCUIT_1957\.int_memory_1\.div_1\.A2
*167 CIRCUIT_1957\.int_memory_1\.div_1\.A3
*168 CIRCUIT_1957\.int_memory_1\.div_1\.A4
*169 CIRCUIT_1957\.int_memory_1\.div_1\.A5
*170 CIRCUIT_1957\.int_memory_1\.div_1\.A6
*171 CIRCUIT_1957\.int_memory_1\.div_1\.A7
*172 CIRCUIT_1957\.int_memory_1\.div_1\.B0
*173 CIRCUIT_1957\.int_memory_1\.div_1\.B1
*174 CIRCUIT_1957\.int_memory_1\.div_1\.B2
*175 CIRCUIT_1957\.int_memory_1\.div_1\.B3
*176 CIRCUIT_1957\.int_memory_1\.mul2_1\.A0
*177 CIRCUIT_1957\.int_memory_1\.mul2_1\.A1
*178 CIRCUIT_1957\.int_memory_1\.mul2_1\.A2
*179 CIRCUIT_1957\.int_memory_1\.mul2_1\.A3
*180 CIRCUIT_1957\.int_memory_1\.mul2_1\.B0
*181 CIRCUIT_1957\.int_memory_1\.mul2_1\.B1
*182 CIRCUIT_1957\.int_memory_1\.mul2_1\.B2
*183 CIRCUIT_1957\.int_memory_1\.mul2_1\.B3
*184 _0000_
*185 _0001_
*186 _0002_
*187 _0003_
*188 _0004_
*189 _0005_
*190 _0006_
*191 _0007_
*192 _0008_
*193 _0009_
*194 _0010_
*195 _0011_
*196 _0012_
*197 _0013_
*198 _0014_
*199 _0015_
*200 _0016_
*201 _0017_
*202 _0018_
*203 _0027_
*204 _0028_
*205 _0029_
*206 _0030_
*207 _0031_
*208 _0032_
*209 _0033_
*210 _0034_
*211 _0035_
*212 _0036_
*213 _0037_
*214 _0038_
*215 _0039_
*216 _0040_
*217 _0041_
*218 _0042_
*219 _0043_
*220 _0044_
*221 _0045_
*222 _0046_
*223 _0047_
*224 _0048_
*225 _0049_
*226 _0050_
*227 _0051_
*228 _0052_
*229 _0053_
*230 _0054_
*231 _0055_
*232 _0056_
*233 _0057_
*234 _0058_
*235 _0059_
*236 _0060_
*237 _0061_
*238 _0062_
*239 _0063_
*240 _0064_
*241 _0065_
*242 _0066_
*243 _0067_
*244 _0068_
*245 _0069_
*246 _0070_
*247 _0071_
*248 _0072_
*249 _0073_
*250 _0074_
*251 _0075_
*252 _0076_
*253 _0077_
*254 _0078_
*255 _0079_
*256 _0080_
*257 _0081_
*258 _0082_
*259 _0083_
*260 _0084_
*261 _0085_
*262 _0086_
*263 _0087_
*264 _0088_
*265 _0089_
*266 _0090_
*267 _0091_
*268 _0092_
*269 _0093_
*270 _0094_
*271 _0095_
*272 _0096_
*273 _0097_
*274 _0098_
*275 _0099_
*276 _0100_
*277 _0101_
*278 _0102_
*279 _0103_
*280 _0104_
*281 _0105_
*282 _0106_
*283 _0107_
*284 _0108_
*285 _0109_
*286 _0110_
*287 _0111_
*288 _0112_
*289 _0113_
*290 _0114_
*291 _0115_
*292 _0116_
*293 _0117_
*294 _0118_
*295 _0119_
*296 _0120_
*297 _0121_
*298 _0122_
*299 _0123_
*300 _0124_
*301 _0125_
*302 _0126_
*303 _0127_
*304 _0128_
*305 _0129_
*306 _0130_
*307 _0131_
*308 _0132_
*309 _0133_
*310 _0134_
*311 _0135_
*312 _0136_
*313 _0137_
*314 _0138_
*315 _0139_
*316 _0140_
*317 _0141_
*318 _0142_
*319 _0143_
*320 _0144_
*321 _0145_
*322 _0146_
*323 _0147_
*324 _0148_
*325 _0149_
*326 _0150_
*327 _0151_
*328 _0152_
*329 _0153_
*330 _0154_
*331 _0155_
*332 _0156_
*333 _0157_
*334 _0158_
*335 _0159_
*336 _0160_
*337 _0161_
*338 _0162_
*339 _0163_
*340 _0164_
*341 _0165_
*342 _0166_
*343 _0167_
*344 _0168_
*345 _0169_
*346 _0170_
*347 _0171_
*348 _0172_
*349 _0173_
*350 _0174_
*351 _0175_
*352 _0176_
*353 _0177_
*354 _0178_
*355 _0179_
*356 _0180_
*357 _0181_
*358 _0182_
*359 _0183_
*360 _0184_
*361 _0185_
*362 _0186_
*363 _0187_
*364 _0188_
*365 _0189_
*366 _0190_
*367 _0191_
*368 _0192_
*369 _0193_
*370 _0194_
*371 _0195_
*372 _0196_
*373 _0197_
*374 _0198_
*375 _0199_
*376 _0200_
*377 _0201_
*378 _0202_
*379 _0203_
*380 _0204_
*381 _0205_
*382 _0206_
*383 _0207_
*384 _0208_
*385 _0209_
*386 _0210_
*387 _0211_
*388 _0212_
*389 _0213_
*390 _0214_
*391 _0215_
*392 _0216_
*393 _0217_
*394 _0218_
*395 _0219_
*396 _0220_
*397 _0221_
*398 _0222_
*399 _0223_
*400 _0224_
*401 _0225_
*402 _0226_
*403 _0227_
*404 _0228_
*405 _0229_
*406 _0230_
*407 _0231_
*408 _0232_
*409 _0233_
*410 _0234_
*411 _0235_
*412 _0236_
*413 _0237_
*414 _0238_
*415 _0239_
*416 _0240_
*417 _0241_
*418 _0242_
*419 _0243_
*420 _0244_
*421 _0245_
*422 _0246_
*423 _0247_
*424 _0248_
*425 _0249_
*426 _0250_
*427 _0251_
*428 _0252_
*429 _0253_
*430 _0254_
*431 _0255_
*432 _0256_
*433 _0257_
*434 _0258_
*435 _0259_
*436 _0260_
*437 _0261_
*438 _0262_
*439 _0263_
*440 _0264_
*441 _0265_
*442 _0266_
*443 _0267_
*444 _0268_
*445 _0269_
*446 _0270_
*447 _0271_
*448 _0272_
*449 _0273_
*450 _0274_
*451 _0275_
*452 _0276_
*453 _0277_
*454 _0278_
*455 _0279_
*456 _0280_
*457 _0281_
*458 _0282_
*459 _0283_
*460 _0284_
*461 _0285_
*462 _0286_
*463 _0287_
*464 _0288_
*465 _0289_
*466 _0290_
*467 _0291_
*468 _0292_
*469 _0293_
*470 _0294_
*471 _0295_
*472 _0296_
*473 _0297_
*474 _0298_
*475 _0299_
*476 _0300_
*477 _0301_
*478 _0302_
*479 _0303_
*480 _0304_
*481 _0305_
*482 _0306_
*483 _0307_
*484 _0308_
*485 _0309_
*486 _0310_
*487 _0311_
*488 _0312_
*489 _0313_
*490 _0314_
*491 _0315_
*492 _0316_
*493 _0317_
*494 _0318_
*495 _0319_
*496 _0320_
*497 _0321_
*498 _0322_
*499 _0323_
*500 _0324_
*501 _0325_
*502 _0326_
*503 _0327_
*504 _0328_
*505 _0329_
*506 _0330_
*507 _0331_
*508 _0332_
*509 _0333_
*510 _0334_
*511 _0335_
*512 _0336_
*513 _0337_
*514 _0338_
*515 _0339_
*516 _0340_
*517 _0341_
*518 _0342_
*519 _0343_
*520 _0344_
*521 _0345_
*522 _0346_
*523 _0347_
*524 _0348_
*525 _0349_
*526 _0350_
*527 _0351_
*528 _0352_
*529 _0353_
*530 _0354_
*531 _0355_
*532 _0356_
*533 _0357_
*534 _0358_
*535 _0359_
*536 _0360_
*537 _0361_
*538 _0362_
*539 _0363_
*540 _0364_
*541 _0365_
*542 _0366_
*543 _0367_
*544 _0368_
*545 _0369_
*546 _0370_
*547 _0371_
*548 _0372_
*549 _0373_
*550 _0374_
*551 _0375_
*552 _0376_
*553 _0377_
*554 _0378_
*555 _0379_
*556 _0380_
*557 _0381_
*558 _0382_
*559 _0383_
*560 _0384_
*561 _0385_
*562 _0386_
*563 _0387_
*564 _0388_
*565 _0389_
*566 _0390_
*567 _0391_
*568 _0392_
*569 _0393_
*570 _0394_
*571 _0395_
*572 _0396_
*573 _0397_
*574 _0398_
*575 _0399_
*576 _0400_
*577 _0401_
*578 _0402_
*579 _0403_
*580 _0404_
*581 _0405_
*582 _0406_
*583 _0407_
*584 _0408_
*585 _0409_
*586 _0410_
*587 _0411_
*588 _0412_
*589 _0413_
*590 _0414_
*591 _0415_
*592 _0416_
*593 _0417_
*594 _0418_
*595 _0419_
*596 _0420_
*597 _0421_
*598 _0422_
*599 _0423_
*600 _0424_
*601 _0425_
*602 _0426_
*603 _0427_
*604 _0428_
*605 _0429_
*606 _0430_
*607 _0431_
*608 _0432_
*609 _0433_
*610 _0434_
*611 _0435_
*612 _0436_
*613 _0437_
*614 _0438_
*615 _0439_
*616 _0440_
*617 _0441_
*618 _0442_
*619 _0443_
*620 _0444_
*621 _0445_
*622 _0446_
*623 _0447_
*624 _0448_
*625 _0449_
*626 _0450_
*627 _0451_
*628 _0452_
*629 _0453_
*630 _0454_
*631 _0455_
*632 _0456_
*633 _0457_
*634 _0458_
*635 _0459_
*636 _0460_
*637 _0461_
*638 _0462_
*639 _0463_
*640 _0464_
*641 clknet_0_CIRCUIT_1957\.int_memory_1\.GATES_21\.result
*642 clknet_0_CIRCUIT_1957\.int_memory_1\.GATES_22\.result
*643 clknet_0_CIRCUIT_1957\.int_memory_1\.GATES_23\.result
*644 clknet_0_CIRCUIT_1957\.int_memory_1\.GATES_24\.result
*645 clknet_0_CIRCUIT_1957\.int_memory_1\.GATES_25\.result
*646 clknet_0_CIRCUIT_1957\.int_memory_1\.GATES_26\.result
*647 clknet_0_CIRCUIT_1957\.int_memory_1\.GATES_27\.result
*648 clknet_0_CIRCUIT_1957\.int_memory_1\.GATES_28\.result
*649 clknet_0_CIRCUIT_1957\.int_memory_1\.GATES_29\.result
*650 clknet_0_CIRCUIT_1957\.int_memory_1\.GATES_30\.result
*651 clknet_0_CIRCUIT_1957\.int_memory_1\.GATES_31\.result
*652 clknet_0_CIRCUIT_1957\.int_memory_1\.GATES_32\.result
*653 clknet_0_CIRCUIT_1957\.int_memory_1\.GATES_33\.result
*654 clknet_0_CIRCUIT_1957\.int_memory_1\.GATES_50\.result
*655 clknet_0_CIRCUIT_1957\.int_memory_1\.GATES_53\.result
*656 clknet_0__0460_
*657 clknet_0_clk
*658 clknet_1_0__leaf_CIRCUIT_1957\.int_memory_1\.GATES_21\.result
*659 clknet_1_0__leaf_CIRCUIT_1957\.int_memory_1\.GATES_22\.result
*660 clknet_1_0__leaf_CIRCUIT_1957\.int_memory_1\.GATES_23\.result
*661 clknet_1_0__leaf_CIRCUIT_1957\.int_memory_1\.GATES_24\.result
*662 clknet_1_0__leaf_CIRCUIT_1957\.int_memory_1\.GATES_25\.result
*663 clknet_1_0__leaf_CIRCUIT_1957\.int_memory_1\.GATES_26\.result
*664 clknet_1_0__leaf_CIRCUIT_1957\.int_memory_1\.GATES_27\.result
*665 clknet_1_0__leaf_CIRCUIT_1957\.int_memory_1\.GATES_28\.result
*666 clknet_1_0__leaf_CIRCUIT_1957\.int_memory_1\.GATES_29\.result
*667 clknet_1_0__leaf_CIRCUIT_1957\.int_memory_1\.GATES_30\.result
*668 clknet_1_0__leaf_CIRCUIT_1957\.int_memory_1\.GATES_31\.result
*669 clknet_1_0__leaf_CIRCUIT_1957\.int_memory_1\.GATES_32\.result
*670 clknet_1_0__leaf_CIRCUIT_1957\.int_memory_1\.GATES_33\.result
*671 clknet_1_0__leaf_CIRCUIT_1957\.int_memory_1\.GATES_50\.result
*672 clknet_1_0__leaf_CIRCUIT_1957\.int_memory_1\.GATES_53\.result
*673 clknet_1_0__leaf__0460_
*674 clknet_1_1__leaf_CIRCUIT_1957\.int_memory_1\.GATES_21\.result
*675 clknet_1_1__leaf_CIRCUIT_1957\.int_memory_1\.GATES_22\.result
*676 clknet_1_1__leaf_CIRCUIT_1957\.int_memory_1\.GATES_23\.result
*677 clknet_1_1__leaf_CIRCUIT_1957\.int_memory_1\.GATES_24\.result
*678 clknet_1_1__leaf_CIRCUIT_1957\.int_memory_1\.GATES_25\.result
*679 clknet_1_1__leaf_CIRCUIT_1957\.int_memory_1\.GATES_26\.result
*680 clknet_1_1__leaf_CIRCUIT_1957\.int_memory_1\.GATES_27\.result
*681 clknet_1_1__leaf_CIRCUIT_1957\.int_memory_1\.GATES_28\.result
*682 clknet_1_1__leaf_CIRCUIT_1957\.int_memory_1\.GATES_29\.result
*683 clknet_1_1__leaf_CIRCUIT_1957\.int_memory_1\.GATES_30\.result
*684 clknet_1_1__leaf_CIRCUIT_1957\.int_memory_1\.GATES_31\.result
*685 clknet_1_1__leaf_CIRCUIT_1957\.int_memory_1\.GATES_32\.result
*686 clknet_1_1__leaf_CIRCUIT_1957\.int_memory_1\.GATES_33\.result
*687 clknet_1_1__leaf_CIRCUIT_1957\.int_memory_1\.GATES_50\.result
*688 clknet_1_1__leaf_CIRCUIT_1957\.int_memory_1\.GATES_53\.result
*689 clknet_1_1__leaf__0460_
*690 clknet_2_0__leaf_clk
*691 clknet_2_1__leaf_clk
*692 clknet_2_2__leaf_clk
*693 clknet_2_3__leaf_clk
*694 net1
*695 net10
*696 net11
*697 net12
*698 net13
*699 net14
*700 net15
*701 net16
*702 net17
*703 net18
*704 net19
*705 net2
*706 net20
*707 net21
*708 net22
*709 net23
*710 net24
*711 net25
*712 net26
*713 net27
*714 net28
*715 net29
*716 net3
*717 net30
*718 net31
*719 net32
*720 net33
*721 net34
*722 net35
*723 net36
*724 net37
*725 net38
*726 net39
*727 net4
*728 net40
*729 net41
*730 net42
*731 net43
*732 net44
*733 net45
*734 net46
*735 net47
*736 net48
*737 net49
*738 net5
*739 net50
*740 net51
*741 net52
*742 net53
*743 net54
*744 net55
*745 net56
*746 net6
*747 net69
*748 net7
*749 net70
*750 net71
*751 net72
*752 net73
*753 net74
*754 net75
*755 net76
*756 net8
*757 net9
*758 ANTENNA_1
*759 ANTENNA_2
*760 FILLER_0_109
*761 FILLER_0_11
*762 FILLER_0_113
*763 FILLER_0_118
*764 FILLER_0_129
*765 FILLER_0_137
*766 FILLER_0_141
*767 FILLER_0_146
*768 FILLER_0_164
*769 FILLER_0_169
*770 FILLER_0_173
*771 FILLER_0_180
*772 FILLER_0_194
*773 FILLER_0_197
*774 FILLER_0_20
*775 FILLER_0_205
*776 FILLER_0_212
*777 FILLER_0_225
*778 FILLER_0_233
*779 FILLER_0_237
*780 FILLER_0_244
*781 FILLER_0_253
*782 FILLER_0_261
*783 FILLER_0_269
*784 FILLER_0_276
*785 FILLER_0_281
*786 FILLER_0_285
*787 FILLER_0_29
*788 FILLER_0_292
*789 FILLER_0_3
*790 FILLER_0_304
*791 FILLER_0_309
*792 FILLER_0_317
*793 FILLER_0_327
*794 FILLER_0_335
*795 FILLER_0_337
*796 FILLER_0_345
*797 FILLER_0_349
*798 FILLER_0_353
*799 FILLER_0_361
*800 FILLER_0_365
*801 FILLER_0_37
*802 FILLER_0_370
*803 FILLER_0_385
*804 FILLER_0_391
*805 FILLER_0_393
*806 FILLER_0_397
*807 FILLER_0_401
*808 FILLER_0_45
*809 FILLER_0_52
*810 FILLER_0_57
*811 FILLER_0_61
*812 FILLER_0_65
*813 FILLER_0_77
*814 FILLER_0_81
*815 FILLER_0_85
*816 FILLER_0_93
*817 FILLER_0_97
*818 FILLER_10_107
*819 FILLER_10_116
*820 FILLER_10_128
*821 FILLER_10_141
*822 FILLER_10_15
*823 FILLER_10_161
*824 FILLER_10_171
*825 FILLER_10_183
*826 FILLER_10_187
*827 FILLER_10_194
*828 FILLER_10_197
*829 FILLER_10_215
*830 FILLER_10_227
*831 FILLER_10_235
*832 FILLER_10_242
*833 FILLER_10_250
*834 FILLER_10_253
*835 FILLER_10_257
*836 FILLER_10_27
*837 FILLER_10_274
*838 FILLER_10_286
*839 FILLER_10_29
*840 FILLER_10_298
*841 FILLER_10_3
*842 FILLER_10_306
*843 FILLER_10_309
*844 FILLER_10_317
*845 FILLER_10_329
*846 FILLER_10_341
*847 FILLER_10_35
*848 FILLER_10_353
*849 FILLER_10_361
*850 FILLER_10_365
*851 FILLER_10_377
*852 FILLER_10_389
*853 FILLER_10_401
*854 FILLER_10_43
*855 FILLER_10_64
*856 FILLER_10_76
*857 FILLER_10_85
*858 FILLER_11_108
*859 FILLER_11_113
*860 FILLER_11_125
*861 FILLER_11_133
*862 FILLER_11_141
*863 FILLER_11_15
*864 FILLER_11_165
*865 FILLER_11_169
*866 FILLER_11_177
*867 FILLER_11_185
*868 FILLER_11_193
*869 FILLER_11_21
*870 FILLER_11_213
*871 FILLER_11_221
*872 FILLER_11_225
*873 FILLER_11_233
*874 FILLER_11_252
*875 FILLER_11_276
*876 FILLER_11_281
*877 FILLER_11_293
*878 FILLER_11_299
*879 FILLER_11_3
*880 FILLER_11_316
*881 FILLER_11_326
*882 FILLER_11_33
*883 FILLER_11_334
*884 FILLER_11_337
*885 FILLER_11_349
*886 FILLER_11_361
*887 FILLER_11_37
*888 FILLER_11_373
*889 FILLER_11_385
*890 FILLER_11_391
*891 FILLER_11_393
*892 FILLER_11_405
*893 FILLER_11_54
*894 FILLER_11_57
*895 FILLER_11_64
*896 FILLER_11_76
*897 FILLER_11_88
*898 FILLER_12_109
*899 FILLER_12_121
*900 FILLER_12_133
*901 FILLER_12_139
*902 FILLER_12_141
*903 FILLER_12_159
*904 FILLER_12_169
*905 FILLER_12_181
*906 FILLER_12_192
*907 FILLER_12_197
*908 FILLER_12_219
*909 FILLER_12_229
*910 FILLER_12_241
*911 FILLER_12_248
*912 FILLER_12_253
*913 FILLER_12_26
*914 FILLER_12_271
*915 FILLER_12_283
*916 FILLER_12_289
*917 FILLER_12_29
*918 FILLER_12_3
*919 FILLER_12_306
*920 FILLER_12_309
*921 FILLER_12_327
*922 FILLER_12_339
*923 FILLER_12_351
*924 FILLER_12_363
*925 FILLER_12_365
*926 FILLER_12_377
*927 FILLER_12_389
*928 FILLER_12_401
*929 FILLER_12_41
*930 FILLER_12_53
*931 FILLER_12_65
*932 FILLER_12_77
*933 FILLER_12_83
*934 FILLER_12_85
*935 FILLER_12_97
*936 FILLER_13_105
*937 FILLER_13_111
*938 FILLER_13_113
*939 FILLER_13_125
*940 FILLER_13_149
*941 FILLER_13_15
*942 FILLER_13_159
*943 FILLER_13_167
*944 FILLER_13_169
*945 FILLER_13_181
*946 FILLER_13_189
*947 FILLER_13_20
*948 FILLER_13_207
*949 FILLER_13_218
*950 FILLER_13_225
*951 FILLER_13_237
*952 FILLER_13_249
*953 FILLER_13_261
*954 FILLER_13_269
*955 FILLER_13_277
*956 FILLER_13_281
*957 FILLER_13_289
*958 FILLER_13_3
*959 FILLER_13_306
*960 FILLER_13_32
*961 FILLER_13_330
*962 FILLER_13_337
*963 FILLER_13_349
*964 FILLER_13_361
*965 FILLER_13_373
*966 FILLER_13_385
*967 FILLER_13_391
*968 FILLER_13_393
*969 FILLER_13_405
*970 FILLER_13_44
*971 FILLER_13_57
*972 FILLER_13_69
*973 FILLER_13_81
*974 FILLER_13_93
*975 FILLER_14_103
*976 FILLER_14_115
*977 FILLER_14_127
*978 FILLER_14_139
*979 FILLER_14_141
*980 FILLER_14_15
*981 FILLER_14_153
*982 FILLER_14_165
*983 FILLER_14_177
*984 FILLER_14_189
*985 FILLER_14_195
*986 FILLER_14_197
*987 FILLER_14_205
*988 FILLER_14_213
*989 FILLER_14_234
*990 FILLER_14_246
*991 FILLER_14_253
*992 FILLER_14_257
*993 FILLER_14_264
*994 FILLER_14_27
*995 FILLER_14_279
*996 FILLER_14_287
*997 FILLER_14_29
*998 FILLER_14_296
*999 FILLER_14_3
*1000 FILLER_14_309
*1001 FILLER_14_317
*1002 FILLER_14_327
*1003 FILLER_14_339
*1004 FILLER_14_351
*1005 FILLER_14_363
*1006 FILLER_14_365
*1007 FILLER_14_377
*1008 FILLER_14_389
*1009 FILLER_14_401
*1010 FILLER_14_47
*1011 FILLER_14_59
*1012 FILLER_14_71
*1013 FILLER_14_83
*1014 FILLER_14_85
*1015 FILLER_15_110
*1016 FILLER_15_113
*1017 FILLER_15_125
*1018 FILLER_15_149
*1019 FILLER_15_15
*1020 FILLER_15_161
*1021 FILLER_15_167
*1022 FILLER_15_169
*1023 FILLER_15_181
*1024 FILLER_15_185
*1025 FILLER_15_206
*1026 FILLER_15_218
*1027 FILLER_15_225
*1028 FILLER_15_237
*1029 FILLER_15_249
*1030 FILLER_15_261
*1031 FILLER_15_27
*1032 FILLER_15_273
*1033 FILLER_15_279
*1034 FILLER_15_281
*1035 FILLER_15_293
*1036 FILLER_15_3
*1037 FILLER_15_319
*1038 FILLER_15_331
*1039 FILLER_15_335
*1040 FILLER_15_337
*1041 FILLER_15_349
*1042 FILLER_15_361
*1043 FILLER_15_373
*1044 FILLER_15_385
*1045 FILLER_15_391
*1046 FILLER_15_393
*1047 FILLER_15_405
*1048 FILLER_15_46
*1049 FILLER_15_54
*1050 FILLER_15_57
*1051 FILLER_15_69
*1052 FILLER_15_81
*1053 FILLER_15_89
*1054 FILLER_16_103
*1055 FILLER_16_115
*1056 FILLER_16_127
*1057 FILLER_16_139
*1058 FILLER_16_141
*1059 FILLER_16_15
*1060 FILLER_16_159
*1061 FILLER_16_171
*1062 FILLER_16_183
*1063 FILLER_16_195
*1064 FILLER_16_197
*1065 FILLER_16_209
*1066 FILLER_16_221
*1067 FILLER_16_243
*1068 FILLER_16_251
*1069 FILLER_16_253
*1070 FILLER_16_265
*1071 FILLER_16_27
*1072 FILLER_16_277
*1073 FILLER_16_289
*1074 FILLER_16_29
*1075 FILLER_16_3
*1076 FILLER_16_301
*1077 FILLER_16_307
*1078 FILLER_16_309
*1079 FILLER_16_321
*1080 FILLER_16_346
*1081 FILLER_16_358
*1082 FILLER_16_365
*1083 FILLER_16_377
*1084 FILLER_16_389
*1085 FILLER_16_401
*1086 FILLER_16_41
*1087 FILLER_16_63
*1088 FILLER_16_75
*1089 FILLER_16_83
*1090 FILLER_16_85
*1091 FILLER_17_105
*1092 FILLER_17_111
*1093 FILLER_17_113
*1094 FILLER_17_125
*1095 FILLER_17_149
*1096 FILLER_17_15
*1097 FILLER_17_161
*1098 FILLER_17_167
*1099 FILLER_17_169
*1100 FILLER_17_181
*1101 FILLER_17_193
*1102 FILLER_17_205
*1103 FILLER_17_217
*1104 FILLER_17_223
*1105 FILLER_17_225
*1106 FILLER_17_244
*1107 FILLER_17_254
*1108 FILLER_17_266
*1109 FILLER_17_27
*1110 FILLER_17_277
*1111 FILLER_17_281
*1112 FILLER_17_293
*1113 FILLER_17_3
*1114 FILLER_17_301
*1115 FILLER_17_324
*1116 FILLER_17_334
*1117 FILLER_17_337
*1118 FILLER_17_345
*1119 FILLER_17_357
*1120 FILLER_17_369
*1121 FILLER_17_381
*1122 FILLER_17_389
*1123 FILLER_17_39
*1124 FILLER_17_393
*1125 FILLER_17_405
*1126 FILLER_17_51
*1127 FILLER_17_55
*1128 FILLER_17_57
*1129 FILLER_17_69
*1130 FILLER_17_81
*1131 FILLER_17_93
*1132 FILLER_18_103
*1133 FILLER_18_115
*1134 FILLER_18_127
*1135 FILLER_18_131
*1136 FILLER_18_138
*1137 FILLER_18_141
*1138 FILLER_18_15
*1139 FILLER_18_159
*1140 FILLER_18_171
*1141 FILLER_18_183
*1142 FILLER_18_192
*1143 FILLER_18_197
*1144 FILLER_18_207
*1145 FILLER_18_215
*1146 FILLER_18_222
*1147 FILLER_18_242
*1148 FILLER_18_250
*1149 FILLER_18_253
*1150 FILLER_18_27
*1151 FILLER_18_275
*1152 FILLER_18_284
*1153 FILLER_18_29
*1154 FILLER_18_292
*1155 FILLER_18_3
*1156 FILLER_18_301
*1157 FILLER_18_307
*1158 FILLER_18_309
*1159 FILLER_18_321
*1160 FILLER_18_343
*1161 FILLER_18_355
*1162 FILLER_18_363
*1163 FILLER_18_365
*1164 FILLER_18_37
*1165 FILLER_18_377
*1166 FILLER_18_389
*1167 FILLER_18_401
*1168 FILLER_18_45
*1169 FILLER_18_63
*1170 FILLER_18_75
*1171 FILLER_18_83
*1172 FILLER_18_85
*1173 FILLER_19_110
*1174 FILLER_19_113
*1175 FILLER_19_121
*1176 FILLER_19_129
*1177 FILLER_19_149
*1178 FILLER_19_15
*1179 FILLER_19_159
*1180 FILLER_19_167
*1181 FILLER_19_169
*1182 FILLER_19_179
*1183 FILLER_19_19
*1184 FILLER_19_191
*1185 FILLER_19_203
*1186 FILLER_19_215
*1187 FILLER_19_223
*1188 FILLER_19_225
*1189 FILLER_19_237
*1190 FILLER_19_241
*1191 FILLER_19_262
*1192 FILLER_19_272
*1193 FILLER_19_281
*1194 FILLER_19_289
*1195 FILLER_19_29
*1196 FILLER_19_297
*1197 FILLER_19_3
*1198 FILLER_19_319
*1199 FILLER_19_331
*1200 FILLER_19_335
*1201 FILLER_19_337
*1202 FILLER_19_358
*1203 FILLER_19_37
*1204 FILLER_19_370
*1205 FILLER_19_382
*1206 FILLER_19_390
*1207 FILLER_19_393
*1208 FILLER_19_405
*1209 FILLER_19_54
*1210 FILLER_19_57
*1211 FILLER_19_69
*1212 FILLER_19_81
*1213 FILLER_19_89
*1214 FILLER_1_100
*1215 FILLER_1_11
*1216 FILLER_1_113
*1217 FILLER_1_125
*1218 FILLER_1_137
*1219 FILLER_1_150
*1220 FILLER_1_162
*1221 FILLER_1_169
*1222 FILLER_1_180
*1223 FILLER_1_197
*1224 FILLER_1_209
*1225 FILLER_1_221
*1226 FILLER_1_225
*1227 FILLER_1_23
*1228 FILLER_1_233
*1229 FILLER_1_237
*1230 FILLER_1_249
*1231 FILLER_1_261
*1232 FILLER_1_273
*1233 FILLER_1_279
*1234 FILLER_1_281
*1235 FILLER_1_293
*1236 FILLER_1_3
*1237 FILLER_1_305
*1238 FILLER_1_317
*1239 FILLER_1_329
*1240 FILLER_1_335
*1241 FILLER_1_337
*1242 FILLER_1_349
*1243 FILLER_1_35
*1244 FILLER_1_361
*1245 FILLER_1_373
*1246 FILLER_1_385
*1247 FILLER_1_391
*1248 FILLER_1_393
*1249 FILLER_1_401
*1250 FILLER_1_405
*1251 FILLER_1_47
*1252 FILLER_1_55
*1253 FILLER_1_57
*1254 FILLER_1_69
*1255 FILLER_1_81
*1256 FILLER_1_93
*1257 FILLER_20_121
*1258 FILLER_20_133
*1259 FILLER_20_139
*1260 FILLER_20_141
*1261 FILLER_20_163
*1262 FILLER_20_171
*1263 FILLER_20_185
*1264 FILLER_20_194
*1265 FILLER_20_197
*1266 FILLER_20_204
*1267 FILLER_20_212
*1268 FILLER_20_23
*1269 FILLER_20_234
*1270 FILLER_20_246
*1271 FILLER_20_253
*1272 FILLER_20_27
*1273 FILLER_20_271
*1274 FILLER_20_279
*1275 FILLER_20_29
*1276 FILLER_20_291
*1277 FILLER_20_3
*1278 FILLER_20_303
*1279 FILLER_20_307
*1280 FILLER_20_309
*1281 FILLER_20_317
*1282 FILLER_20_325
*1283 FILLER_20_347
*1284 FILLER_20_359
*1285 FILLER_20_363
*1286 FILLER_20_365
*1287 FILLER_20_37
*1288 FILLER_20_377
*1289 FILLER_20_389
*1290 FILLER_20_401
*1291 FILLER_20_49
*1292 FILLER_20_61
*1293 FILLER_20_82
*1294 FILLER_20_85
*1295 FILLER_20_97
*1296 FILLER_21_111
*1297 FILLER_21_113
*1298 FILLER_21_12
*1299 FILLER_21_125
*1300 FILLER_21_144
*1301 FILLER_21_154
*1302 FILLER_21_166
*1303 FILLER_21_169
*1304 FILLER_21_182
*1305 FILLER_21_190
*1306 FILLER_21_200
*1307 FILLER_21_212
*1308 FILLER_21_225
*1309 FILLER_21_233
*1310 FILLER_21_241
*1311 FILLER_21_25
*1312 FILLER_21_262
*1313 FILLER_21_274
*1314 FILLER_21_281
*1315 FILLER_21_293
*1316 FILLER_21_3
*1317 FILLER_21_305
*1318 FILLER_21_317
*1319 FILLER_21_329
*1320 FILLER_21_335
*1321 FILLER_21_337
*1322 FILLER_21_35
*1323 FILLER_21_356
*1324 FILLER_21_368
*1325 FILLER_21_380
*1326 FILLER_21_393
*1327 FILLER_21_405
*1328 FILLER_21_42
*1329 FILLER_21_54
*1330 FILLER_21_57
*1331 FILLER_21_69
*1332 FILLER_21_81
*1333 FILLER_21_99
*1334 FILLER_22_109
*1335 FILLER_22_121
*1336 FILLER_22_129
*1337 FILLER_22_138
*1338 FILLER_22_14
*1339 FILLER_22_141
*1340 FILLER_22_153
*1341 FILLER_22_166
*1342 FILLER_22_177
*1343 FILLER_22_194
*1344 FILLER_22_197
*1345 FILLER_22_205
*1346 FILLER_22_213
*1347 FILLER_22_225
*1348 FILLER_22_243
*1349 FILLER_22_25
*1350 FILLER_22_251
*1351 FILLER_22_253
*1352 FILLER_22_265
*1353 FILLER_22_281
*1354 FILLER_22_29
*1355 FILLER_22_293
*1356 FILLER_22_3
*1357 FILLER_22_305
*1358 FILLER_22_309
*1359 FILLER_22_321
*1360 FILLER_22_333
*1361 FILLER_22_345
*1362 FILLER_22_357
*1363 FILLER_22_363
*1364 FILLER_22_365
*1365 FILLER_22_373
*1366 FILLER_22_377
*1367 FILLER_22_382
*1368 FILLER_22_394
*1369 FILLER_22_406
*1370 FILLER_22_41
*1371 FILLER_22_53
*1372 FILLER_22_65
*1373 FILLER_22_77
*1374 FILLER_22_83
*1375 FILLER_22_85
*1376 FILLER_22_97
*1377 FILLER_23_105
*1378 FILLER_23_111
*1379 FILLER_23_113
*1380 FILLER_23_125
*1381 FILLER_23_137
*1382 FILLER_23_145
*1383 FILLER_23_15
*1384 FILLER_23_157
*1385 FILLER_23_165
*1386 FILLER_23_169
*1387 FILLER_23_182
*1388 FILLER_23_190
*1389 FILLER_23_201
*1390 FILLER_23_209
*1391 FILLER_23_220
*1392 FILLER_23_225
*1393 FILLER_23_237
*1394 FILLER_23_24
*1395 FILLER_23_249
*1396 FILLER_23_261
*1397 FILLER_23_269
*1398 FILLER_23_278
*1399 FILLER_23_281
*1400 FILLER_23_293
*1401 FILLER_23_3
*1402 FILLER_23_301
*1403 FILLER_23_31
*1404 FILLER_23_313
*1405 FILLER_23_319
*1406 FILLER_23_327
*1407 FILLER_23_335
*1408 FILLER_23_337
*1409 FILLER_23_346
*1410 FILLER_23_358
*1411 FILLER_23_371
*1412 FILLER_23_380
*1413 FILLER_23_389
*1414 FILLER_23_393
*1415 FILLER_23_405
*1416 FILLER_23_43
*1417 FILLER_23_55
*1418 FILLER_23_57
*1419 FILLER_23_69
*1420 FILLER_23_81
*1421 FILLER_23_93
*1422 FILLER_24_121
*1423 FILLER_24_133
*1424 FILLER_24_139
*1425 FILLER_24_141
*1426 FILLER_24_15
*1427 FILLER_24_153
*1428 FILLER_24_165
*1429 FILLER_24_177
*1430 FILLER_24_186
*1431 FILLER_24_194
*1432 FILLER_24_197
*1433 FILLER_24_204
*1434 FILLER_24_216
*1435 FILLER_24_228
*1436 FILLER_24_240
*1437 FILLER_24_253
*1438 FILLER_24_264
*1439 FILLER_24_27
*1440 FILLER_24_284
*1441 FILLER_24_29
*1442 FILLER_24_296
*1443 FILLER_24_3
*1444 FILLER_24_309
*1445 FILLER_24_317
*1446 FILLER_24_327
*1447 FILLER_24_339
*1448 FILLER_24_351
*1449 FILLER_24_362
*1450 FILLER_24_365
*1451 FILLER_24_372
*1452 FILLER_24_380
*1453 FILLER_24_390