*SPEF "ieee 1481-1999"
*DESIGN "tt2_tholin_multiplier"
*DATE "11:11:11 Fri 11 11, 1111"
*VENDOR "OpenRCX"
*PROGRAM "Parallel Extraction"
*VERSION "1.0"
*DESIGN_FLOW "NAME_SCOPE LOCAL" "PIN_CAP NONE"
*DIVIDER /
*DELIMITER :
*BUS_DELIMITER []
*T_UNIT 1 NS
*C_UNIT 1 PF
*R_UNIT 1 OHM
*L_UNIT 1 HENRY

*NAME_MAP
*1 io_in[0]
*2 io_in[1]
*3 io_in[2]
*4 io_in[3]
*5 io_in[4]
*6 io_in[5]
*7 io_in[6]
*8 io_in[7]
*9 io_out[0]
*10 io_out[1]
*11 io_out[2]
*12 io_out[3]
*13 io_out[4]
*14 io_out[5]
*15 io_out[6]
*16 io_out[7]
*19 _000_
*20 _001_
*21 _002_
*22 _003_
*23 _004_
*24 _005_
*25 _006_
*26 _007_
*27 _008_
*28 _009_
*29 _010_
*30 _011_
*31 _012_
*32 _013_
*33 _014_
*34 _015_
*35 _016_
*36 _017_
*37 _018_
*38 _019_
*39 _020_
*40 _021_
*41 _022_
*42 _023_
*43 _024_
*44 _025_
*45 _026_
*46 _027_
*47 _028_
*48 _029_
*49 _030_
*50 _031_
*51 _032_
*52 _033_
*53 _034_
*54 _035_
*55 _036_
*56 _037_
*57 _038_
*58 _039_
*59 _040_
*60 _041_
*61 _042_
*62 _043_
*63 _044_
*64 _045_
*65 _046_
*66 _047_
*67 _048_
*68 _049_
*69 _050_
*70 _051_
*71 net1
*72 net10
*73 net11
*74 net12
*75 net13
*76 net14
*77 net15
*78 net16
*79 net2
*80 net3
*81 net4
*82 net5
*83 net6
*84 net7
*85 net8
*86 net9
*87 ANTENNA_input1_A
*88 ANTENNA_input2_A
*89 ANTENNA_input3_A
*90 ANTENNA_input4_A
*91 ANTENNA_input5_A
*92 ANTENNA_input6_A
*93 ANTENNA_input7_A
*94 ANTENNA_input8_A
*95 FILLER_0_17
*96 FILLER_0_25
*97 FILLER_0_29
*98 FILLER_0_3
*99 FILLER_0_35
*100 FILLER_0_43
*101 FILLER_0_49
*102 FILLER_0_55
*103 FILLER_0_57
*104 FILLER_0_65
*105 FILLER_0_81
*106 FILLER_0_85
*107 FILLER_0_9
*108 FILLER_0_97
*109 FILLER_10_15
*110 FILLER_10_27
*111 FILLER_10_29
*112 FILLER_10_3
*113 FILLER_10_41
*114 FILLER_10_53
*115 FILLER_10_65
*116 FILLER_10_77
*117 FILLER_10_83
*118 FILLER_10_85
*119 FILLER_10_97
*120 FILLER_11_102
*121 FILLER_11_15
*122 FILLER_11_27
*123 FILLER_11_3
*124 FILLER_11_39
*125 FILLER_11_51
*126 FILLER_11_55
*127 FILLER_11_57
*128 FILLER_11_69
*129 FILLER_11_84
*130 FILLER_11_96
*131 FILLER_12_15
*132 FILLER_12_27
*133 FILLER_12_29
*134 FILLER_12_3
*135 FILLER_12_41
*136 FILLER_12_45
*137 FILLER_12_56
*138 FILLER_12_75
*139 FILLER_12_82
*140 FILLER_12_85
*141 FILLER_12_97
*142 FILLER_13_101
*143 FILLER_13_15
*144 FILLER_13_27
*145 FILLER_13_3
*146 FILLER_13_43
*147 FILLER_13_47
*148 FILLER_13_54
*149 FILLER_13_57
*150 FILLER_13_65
*151 FILLER_13_79
*152 FILLER_13_89
*153 FILLER_14_15
*154 FILLER_14_27
*155 FILLER_14_29
*156 FILLER_14_3
*157 FILLER_14_36
*158 FILLER_14_40
*159 FILLER_14_46
*160 FILLER_14_56
*161 FILLER_14_65
*162 FILLER_14_73
*163 FILLER_14_80
*164 FILLER_14_85
*165 FILLER_14_97
*166 FILLER_15_102
*167 FILLER_15_15
*168 FILLER_15_27
*169 FILLER_15_3
*170 FILLER_15_36
*171 FILLER_15_47
*172 FILLER_15_55
*173 FILLER_15_57
*174 FILLER_15_65
*175 FILLER_15_75
*176 FILLER_15_84
*177 FILLER_15_96
*178 FILLER_16_15
*179 FILLER_16_27
*180 FILLER_16_29
*181 FILLER_16_3
*182 FILLER_16_38
*183 FILLER_16_49
*184 FILLER_16_56
*185 FILLER_16_67
*186 FILLER_16_74
*187 FILLER_16_82
*188 FILLER_16_85
*189 FILLER_16_97
*190 FILLER_17_101
*191 FILLER_17_15
*192 FILLER_17_27
*193 FILLER_17_3
*194 FILLER_17_31
*195 FILLER_17_36
*196 FILLER_17_45
*197 FILLER_17_53
*198 FILLER_17_57
*199 FILLER_17_65
*200 FILLER_17_77
*201 FILLER_17_89
*202 FILLER_18_15
*203 FILLER_18_19
*204 FILLER_18_23
*205 FILLER_18_27
*206 FILLER_18_29
*207 FILLER_18_3
*208 FILLER_18_37
*209 FILLER_18_41
*210 FILLER_18_53
*211 FILLER_18_65
*212 FILLER_18_69
*213 FILLER_18_74
*214 FILLER_18_82
*215 FILLER_18_85
*216 FILLER_18_97
*217 FILLER_19_101
*218 FILLER_19_15
*219 FILLER_19_23
*220 FILLER_19_3
*221 FILLER_19_33
*222 FILLER_19_37
*223 FILLER_19_41
*224 FILLER_19_49
*225 FILLER_19_55
*226 FILLER_19_57
*227 FILLER_19_63
*228 FILLER_19_70
*229 FILLER_19_77
*230 FILLER_19_89
*231 FILLER_1_101
*232 FILLER_1_15
*233 FILLER_1_27
*234 FILLER_1_3
*235 FILLER_1_39
*236 FILLER_1_51
*237 FILLER_1_55
*238 FILLER_1_57
*239 FILLER_1_69
*240 FILLER_1_81
*241 FILLER_1_93
*242 FILLER_20_11
*243 FILLER_20_16
*244 FILLER_20_26
*245 FILLER_20_29
*246 FILLER_20_3
*247 FILLER_20_44
*248 FILLER_20_52
*249 FILLER_20_60
*250 FILLER_20_71
*251 FILLER_20_80
*252 FILLER_20_85
*253 FILLER_20_97
*254 FILLER_21_102
*255 FILLER_21_14
*256 FILLER_21_22
*257 FILLER_21_3
*258 FILLER_21_33
*259 FILLER_21_40
*260 FILLER_21_50
*261 FILLER_21_57
*262 FILLER_21_67
*263 FILLER_21_78
*264 FILLER_21_90
*265 FILLER_22_101
*266 FILLER_22_19
*267 FILLER_22_26
*268 FILLER_22_29
*269 FILLER_22_3
*270 FILLER_22_40
*271 FILLER_22_55
*272 FILLER_22_61
*273 FILLER_22_68
*274 FILLER_22_7
*275 FILLER_22_75
*276 FILLER_22_83
*277 FILLER_22_85
*278 FILLER_22_95
*279 FILLER_23_101
*280 FILLER_23_15
*281 FILLER_23_27
*282 FILLER_23_3
*283 FILLER_23_34
*284 FILLER_23_40
*285 FILLER_23_46
*286 FILLER_23_52
*287 FILLER_23_57
*288 FILLER_23_61
*289 FILLER_23_73
*290 FILLER_23_81
*291 FILLER_23_84
*292 FILLER_23_90
*293 FILLER_24_101
*294 FILLER_24_23
*295 FILLER_24_27
*296 FILLER_24_29
*297 FILLER_24_3
*298 FILLER_24_35
*299 FILLER_24_41
*300 FILLER_24_49
*301 FILLER_24_55
*302 FILLER_24_57
*303 FILLER_24_65
*304 FILLER_24_71
*305 FILLER_24_82
*306 FILLER_24_85
*307 FILLER_24_9
*308 FILLER_2_15
*309 FILLER_2_27
*310 FILLER_2_29
*311 FILLER_2_3
*312 FILLER_2_41
*313 FILLER_2_53
*314 FILLER_2_65
*315 FILLER_2_77
*316 FILLER_2_83
*317 FILLER_2_85
*318 FILLER_2_97
*319 FILLER_3_101
*320 FILLER_3_15
*321 FILLER_3_27
*322 FILLER_3_3
*323 FILLER_3_39
*324 FILLER_3_51
*325 FILLER_3_55
*326 FILLER_3_57
*327 FILLER_3_69
*328 FILLER_3_81
*329 FILLER_3_93
*330 FILLER_4_15
*331 FILLER_4_27
*332 FILLER_4_29
*333 FILLER_4_3
*334 FILLER_4_41
*335 FILLER_4_53
*336 FILLER_4_65
*337 FILLER_4_77
*338 FILLER_4_83
*339 FILLER_4_85
*340 FILLER_4_97
*341 FILLER_5_101
*342 FILLER_5_15
*343 FILLER_5_27
*344 FILLER_5_3
*345 FILLER_5_39
*346 FILLER_5_51
*347 FILLER_5_55
*348 FILLER_5_57
*349 FILLER_5_69
*350 FILLER_5_81
*351 FILLER_5_93
*352 FILLER_6_15
*353 FILLER_6_27
*354 FILLER_6_29
*355 FILLER_6_3
*356 FILLER_6_41
*357 FILLER_6_53
*358 FILLER_6_65
*359 FILLER_6_77
*360 FILLER_6_83
*361 FILLER_6_85
*362 FILLER_6_97
*363 FILLER_7_101
*364 FILLER_7_15
*365 FILLER_7_27
*366 FILLER_7_3
*367 FILLER_7_39
*368 FILLER_7_51
*369 FILLER_7_55
*370 FILLER_7_57
*371 FILLER_7_69
*372 FILLER_7_81
*373 FILLER_7_93
*374 FILLER_8_15
*375 FILLER_8_27
*376 FILLER_8_29
*377 FILLER_8_3
*378 FILLER_8_41
*379 FILLER_8_53
*380 FILLER_8_65
*381 FILLER_8_77
*382 FILLER_8_83
*383 FILLER_8_85
*384 FILLER_8_97
*385 FILLER_9_101
*386 FILLER_9_15
*387 FILLER_9_27
*388 FILLER_9_3
*389 FILLER_9_39
*390 FILLER_9_51
*391 FILLER_9_55
*392 FILLER_9_57
*393 FILLER_9_69
*394 FILLER_9_81
*395 FILLER_9_93
*396 PHY_0
*397 PHY_1
*398 PHY_10
*399 PHY_11
*400 PHY_12
*401 PHY_13
*402 PHY_14
*403 PHY_15
*404 PHY_16
*405 PHY_17
*406 PHY_18
*407 PHY_19
*408 PHY_2
*409 PHY_20
*410 PHY_21
*411 PHY_22
*412 PHY_23
*413 PHY_24
*414 PHY_25
*415 PHY_26
*416 PHY_27
*417 PHY_28
*418 PHY_29
*419 PHY_3
*420 PHY_30
*421 PHY_31
*422 PHY_32
*423 PHY_33
*424 PHY_34
*425 PHY_35
*426 PHY_36
*427 PHY_37
*428 PHY_38
*429 PHY_39
*430 PHY_4
*431 PHY_40
*432 PHY_41
*433 PHY_42
*434 PHY_43
*435 PHY_44
*436 PHY_45
*437 PHY_46
*438 PHY_47
*439 PHY_48
*440 PHY_49
*441 PHY_5
*442 PHY_6
*443 PHY_7
*444 PHY_8
*445 PHY_9
*446 TAP_50
*447 TAP_51
*448 TAP_52
*449 TAP_53
*450 TAP_54
*451 TAP_55
*452 TAP_56
*453 TAP_57
*454 TAP_58
*455 TAP_59
*456 TAP_60
*457 TAP_61
*458 TAP_62
*459 TAP_63
*460 TAP_64
*461 TAP_65
*462 TAP_66
*463 TAP_67
*464 TAP_68
*465 TAP_69
*466 TAP_70
*467 TAP_71
*468 TAP_72
*469 TAP_73
*470 TAP_74
*471 TAP_75
*472 TAP_76
*473 TAP_77
*474 TAP_78
*475 TAP_79
*476 TAP_80
*477 TAP_81
*478 TAP_82
*479 TAP_83
*480 TAP_84
*481 TAP_85
*482 TAP_86
*483 TAP_87
*484 TAP_88
*485 TAP_89
*486 _052_
*487 _053_
*488 _054_
*489 _055_
*490 _056_
*491 _057_
*492 _058_
*493 _059_
*494 _060_
*495 _061_
*496 _062_
*497 _063_
*498 _064_
*499 _065_
*500 _066_
*501 _067_
*502 _068_
*503 _069_
*504 _070_
*505 _071_
*506 _072_
*507 _073_
*508 _074_
*509 _075_
*510 _076_
*511 _077_
*512 _078_
*513 _079_
*514 _080_
*515 _081_
*516 _082_
*517 _083_
*518 _084_
*519 _085_
*520 _086_
*521 _087_
*522 _088_
*523 _089_
*524 _090_
*525 _091_
*526 _092_
*527 _093_
*528 _094_
*529 _095_
*530 _096_
*531 _097_
*532 _098_
*533 _099_
*534 _100_
*535 _101_
*536 _102_
*537 _103_
*538 _104_
*539 _105_
*540 _106_
*541 _107_
*542 _108_
*543 _109_
*544 _110_
*545 _111_
*546 input1
*547 input2
*548 input3
*549 input4
*550 input5
*551 input6
*552 input7
*553 input8
*554 output10
*555 output11
*556 output12
*557 output13
*558 output14
*559 output15
*560 output16
*561 output9

*PORTS
io_in[0] I
io_in[1] I
io_in[2] I
io_in[3] I
io_in[4] I
io_in[5] I
io_in[6] I
io_in[7] I
io_out[0] O
io_out[1] O
io_out[2] O
io_out[3] O
io_out[4] O
io_out[5] O
io_out[6] O
io_out[7] O

*D_NET *1 0.00130615
*CONN
*P io_in[0] I
*I *546:A I *D sky130_fd_sc_hd__dlymetal6s2s_1
*I *87:DIODE I *D sky130_fd_sc_hd__diode_2
*CAP
1 io_in[0] 0.000579534
2 *546:A 0
3 *87:DIODE 7.354e-05
4 *1:10 0.000653074
5 *87:DIODE *71:6 0
6 *87:DIODE *79:8 0
*RES
1 io_in[0] *1:10 23.4821 
2 *1:10 *87:DIODE 29.2464 
3 *1:10 *546:A 9.3 
*END

*D_NET *2 0.0010201
*CONN
*P io_in[1] I
*I *547:A I *D sky130_fd_sc_hd__dlymetal6s2s_1
*I *88:DIODE I *D sky130_fd_sc_hd__diode_2
*CAP
1 io_in[1] 0.000405665
2 *547:A 0
3 *88:DIODE 0.000104386
4 *2:10 0.000510052
5 *88:DIODE *79:8 0
*RES
1 io_in[1] *2:10 19.4107 
2 *2:10 *88:DIODE 11.4786 
3 *2:10 *547:A 9.3 
*END

*D_NET *3 0.00122092
*CONN
*P io_in[2] I
*I *548:A I *D sky130_fd_sc_hd__buf_2
*I *89:DIODE I *D sky130_fd_sc_hd__diode_2
*CAP
1 io_in[2] 0.000417241
2 *548:A 3.09829e-05
3 *89:DIODE 0.000162236
4 *3:9 0.00061046
5 *89:DIODE *491:A 0
6 *89:DIODE *80:8 0
7 *89:DIODE *82:39 0
*RES
1 io_in[2] *3:9 10.8661 
2 *3:9 *89:DIODE 21.9696 
3 *3:9 *548:A 19.1125 
*END

*D_NET *4 0.000966733
*CONN
*P io_in[3] I
*I *549:A I *D sky130_fd_sc_hd__clkbuf_2
*I *90:DIODE I *D sky130_fd_sc_hd__diode_2
*CAP
1 io_in[3] 0.0003593
2 *549:A 0
3 *90:DIODE 0.000124066
4 *4:9 0.000483366
*RES
1 io_in[3] *4:9 18.3571 
2 *4:9 *90:DIODE 11.8893 
3 *4:9 *549:A 9.3 
*END

*D_NET *5 0.000867512
*CONN
*P io_in[4] I
*I *550:A I *D sky130_fd_sc_hd__clkbuf_2
*I *91:DIODE I *D sky130_fd_sc_hd__diode_2
*CAP
1 io_in[4] 0.000322959
2 *550:A 4.53482e-05
3 *91:DIODE 6.54489e-05
4 *5:5 0.000433756
5 *91:DIODE *82:6 0
6 *550:A *83:12 0
*RES
1 io_in[4] *5:5 8.41071 
2 *5:5 *91:DIODE 19.9429 
3 *5:5 *550:A 19.2464 
*END

*D_NET *6 0.00102127
*CONN
*P io_in[5] I
*I *92:DIODE I *D sky130_fd_sc_hd__diode_2
*I *551:A I *D sky130_fd_sc_hd__dlymetal6s2s_1
*CAP
1 io_in[5] 0.00041442
2 *92:DIODE 9.62141e-05
3 *551:A 0
4 *6:8 0.000510634
5 *92:DIODE *93:DIODE 0
6 *92:DIODE *84:10 0
*RES
1 io_in[5] *6:8 19.2857 
2 *6:8 *551:A 9.3 
3 *6:8 *92:DIODE 29.7821 
*END

*D_NET *7 0.00120735
*CONN
*P io_in[6] I
*I *552:A I *D sky130_fd_sc_hd__dlymetal6s2s_1
*I *93:DIODE I *D sky130_fd_sc_hd__diode_2
*CAP
1 io_in[6] 0.000345175
2 *552:A 2.56688e-05
3 *93:DIODE 0.000232833
4 *7:7 0.000603677
5 *552:A *84:10 0
6 *92:DIODE *93:DIODE 0
*RES
1 io_in[6] *7:7 9.05357 
2 *7:7 *93:DIODE 24.0321 
3 *7:7 *552:A 18.8357 
*END

*D_NET *8 0.00128054
*CONN
*P io_in[7] I
*I *553:A I *D sky130_fd_sc_hd__dlymetal6s2s_1
*I *94:DIODE I *D sky130_fd_sc_hd__diode_2
*CAP
1 io_in[7] 0.000566781
2 *553:A 0
3 *94:DIODE 7.34886e-05
4 *8:8 0.000640269
*RES
1 io_in[7] *8:8 22.9464 
2 *8:8 *94:DIODE 29.2464 
3 *8:8 *553:A 9.3 
*END

*D_NET *9 0.000934918
*CONN
*P io_out[0] O
*I *561:X O *D sky130_fd_sc_hd__buf_2
*CAP
1 io_out[0] 0.000467459
2 *561:X 0.000467459
*RES
1 *561:X io_out[0] 29.425 
*END

*D_NET *10 0.000619979
*CONN
*P io_out[1] O
*I *554:X O *D sky130_fd_sc_hd__buf_2
*CAP
1 io_out[1] 0.000309989
2 *554:X 0.000309989
3 io_out[1] *561:A 0
*RES
1 *554:X io_out[1] 26.1393 
*END

*D_NET *11 0.000705279
*CONN
*P io_out[2] O
*I *555:X O *D sky130_fd_sc_hd__buf_2
*CAP
1 io_out[2] 0.000352639
2 *555:X 0.000352639
*RES
1 *555:X io_out[2] 27.2107 
*END

*D_NET *12 0.000659406
*CONN
*P io_out[3] O
*I *556:X O *D sky130_fd_sc_hd__buf_2
*CAP
1 io_out[3] 0.000329703
2 *556:X 0.000329703
*RES
1 *556:X io_out[3] 26.55 
*END

*D_NET *13 0.000659406
*CONN
*P io_out[4] O
*I *557:X O *D sky130_fd_sc_hd__buf_2
*CAP
1 io_out[4] 0.000329703
2 *557:X 0.000329703
*RES
1 *557:X io_out[4] 26.55 
*END

*D_NET *14 0.000659338
*CONN
*P io_out[5] O
*I *558:X O *D sky130_fd_sc_hd__buf_2
*CAP
1 io_out[5] 0.000329669
2 *558:X 0.000329669
3 io_out[5] *558:A 0
*RES
1 *558:X io_out[5] 26.55 
*END

*D_NET *15 0.000659338
*CONN
*P io_out[6] O
*I *559:X O *D sky130_fd_sc_hd__buf_2
*CAP
1 io_out[6] 0.000329669
2 *559:X 0.000329669
*RES
1 *559:X io_out[6] 26.55 
*END

*D_NET *16 0.00108207
*CONN
*P io_out[7] O
*I *560:X O *D sky130_fd_sc_hd__buf_2
*CAP
1 io_out[7] 0.000541033
2 *560:X 0.000541033
*RES
1 *560:X io_out[7] 31.4429 
*END

*D_NET *19 0.000977894
*CONN
*I *493:C I *D sky130_fd_sc_hd__or4_1
*I *490:A1 I *D sky130_fd_sc_hd__o21a_1
*I *487:A I *D sky130_fd_sc_hd__inv_2
*I *486:Y O *D sky130_fd_sc_hd__nand2_1
*CAP
1 *493:C 0.000121071
2 *490:A1 0
3 *487:A 0.000143402
4 *486:Y 0.000179126
5 *19:20 0.000166419
6 *19:8 0.000367876
7 *487:A *490:A2 0
8 *487:A *493:B 0
9 *487:A *72:8 0
10 *493:C *493:B 0
11 *493:C *493:D 0
12 *19:8 *486:A 0
13 *19:8 *490:A2 0
14 *19:8 *490:B1 0
15 *19:8 *496:A1 0
16 *19:8 *20:10 0
17 *19:20 *490:A2 0
18 *19:20 *490:B1 0
19 *19:20 *493:D 0
*RES
1 *486:Y *19:8 22.425 
2 *19:8 *487:A 21.8 
3 *19:8 *19:20 9.94643 
4 *19:20 *490:A1 9.3 
5 *19:20 *493:C 11.8893 
*END

*D_NET *20 0.00128589
*CONN
*I *496:A1 I *D sky130_fd_sc_hd__a21o_1
*I *493:D I *D sky130_fd_sc_hd__or4_1
*I *490:A2 I *D sky130_fd_sc_hd__o21a_1
*I *488:Y O *D sky130_fd_sc_hd__nand2_1
*CAP
1 *496:A1 6.50276e-05
2 *493:D 0.000179457
3 *490:A2 0.0001016
4 *488:Y 0.000233776
5 *20:10 0.00034414
6 *20:8 0.000361887
7 *490:A2 *490:B1 0
8 *493:D *490:B1 0
9 *496:A1 *486:A 0
10 *20:8 *486:B 0
11 *20:8 *490:B1 0
12 *20:8 *496:A2 0
13 *20:8 *71:20 0
14 *487:A *490:A2 0
15 *493:C *493:D 0
16 *19:8 *490:A2 0
17 *19:8 *496:A1 0
18 *19:8 *20:10 0
19 *19:20 *490:A2 0
20 *19:20 *493:D 0
*RES
1 *488:Y *20:8 23.7464 
2 *20:8 *20:10 1.64286 
3 *20:10 *490:A2 20.6929 
4 *20:10 *493:D 22.1214 
5 *20:8 *496:A1 19.6571 
*END

*D_NET *21 0.000616943
*CONN
*I *490:B1 I *D sky130_fd_sc_hd__o21a_1
*I *489:X O *D sky130_fd_sc_hd__a22o_1
*CAP
1 *490:B1 0.000308471
2 *489:X 0.000308471
3 *490:B1 *486:A 0
4 *490:B1 *493:B 0
5 *490:B1 *496:A2 0
6 *490:B1 *71:20 0
7 *490:A2 *490:B1 0
8 *493:D *490:B1 0
9 *19:8 *490:B1 0
10 *19:20 *490:B1 0
11 *20:8 *490:B1 0
*RES
1 *489:X *490:B1 43.7964 
*END

*D_NET *22 0.000737026
*CONN
*I *493:A I *D sky130_fd_sc_hd__or4_1
*I *491:Y O *D sky130_fd_sc_hd__clkinv_2
*CAP
1 *493:A 0.000368513
2 *491:Y 0.000368513
3 *493:A *486:A 0
4 *493:A *492:A 0
5 *493:A *493:B 0
6 *493:A *495:A1 0
7 *493:A *26:8 0
8 *493:A *26:10 0
9 *493:A *26:15 0
10 *493:A *27:8 0
11 *493:A *80:8 0
12 *493:A *82:50 0
*RES
1 *491:Y *493:A 46.0643 
*END

*D_NET *23 0.000749555
*CONN
*I *493:B I *D sky130_fd_sc_hd__or4_1
*I *492:Y O *D sky130_fd_sc_hd__clkinv_2
*CAP
1 *493:B 0.000374777
2 *492:Y 0.000374777
3 *493:B *486:A 0
4 *493:B *492:A 0
5 *493:B *27:8 0
6 *493:B *71:20 0
7 *487:A *493:B 0
8 *490:B1 *493:B 0
9 *493:A *493:B 0
10 *493:C *493:B 0
*RES
1 *492:Y *493:B 45.4214 
*END

*D_NET *24 0.000816565
*CONN
*I *498:A1 I *D sky130_fd_sc_hd__a21oi_1
*I *499:B I *D sky130_fd_sc_hd__and3_1
*I *493:X O *D sky130_fd_sc_hd__or4_1
*CAP
1 *498:A1 0
2 *499:B 0.00025199
3 *493:X 0.000156292
4 *24:8 0.000408283
5 *499:B *499:A 0
6 *499:B *499:C 0
7 *499:B *27:8 0
8 *499:B *28:8 0
9 *499:B *29:13 0
10 *24:8 *497:A 0
11 *24:8 *27:8 0
12 *24:8 *28:8 0
13 *24:8 *42:6 0
*RES
1 *493:X *24:8 22.3 
2 *24:8 *499:B 24.8 
3 *24:8 *498:A1 18.3 
*END

*D_NET *25 0.000465974
*CONN
*I *496:A2 I *D sky130_fd_sc_hd__a21o_1
*I *494:Y O *D sky130_fd_sc_hd__nand2_1
*CAP
1 *496:A2 0.000232987
2 *494:Y 0.000232987
3 *496:A2 *486:A 0
4 *496:A2 *488:A 0
5 *496:A2 *492:A 0
6 *490:B1 *496:A2 0
7 *20:8 *496:A2 0
*RES
1 *494:Y *496:A2 42.3321 
*END

*D_NET *26 0.00369236
*CONN
*I *513:B1 I *D sky130_fd_sc_hd__a21o_1
*I *496:B1 I *D sky130_fd_sc_hd__a21o_1
*I *503:B1 I *D sky130_fd_sc_hd__a221o_1
*I *526:A2 I *D sky130_fd_sc_hd__a21boi_1
*I *504:A I *D sky130_fd_sc_hd__nand3_1
*I *511:A I *D sky130_fd_sc_hd__nand3_1
*I *495:X O *D sky130_fd_sc_hd__o2111a_1
*CAP
1 *513:B1 0.000285351
2 *496:B1 0.000202783
3 *503:B1 0.000206184
4 *526:A2 2.56688e-05
5 *504:A 0.000145012
6 *511:A 2.0535e-05
7 *495:X 0.000208063
8 *26:39 0.000292537
9 *26:27 0.000486555
10 *26:15 0.000616779
11 *26:10 0.000613822
12 *26:8 0.000589067
13 *496:B1 *27:8 0
14 *503:B1 *503:A1 0
15 *503:B1 *503:C1 0
16 *503:B1 *504:B 0
17 *503:B1 *511:C 0
18 *503:B1 *31:13 0
19 *503:B1 *31:19 0
20 *503:B1 *32:9 0
21 *503:B1 *40:10 0
22 *504:A *505:A 0
23 *504:A *511:B 0
24 *504:A *31:19 0
25 *504:A *33:8 0
26 *504:A *85:19 0
27 *513:B1 *489:B2 0
28 *513:B1 *32:9 0
29 *513:B1 *43:10 0
30 *513:B1 *71:27 0
31 *513:B1 *79:30 0
32 *526:A2 *526:A1 0
33 *526:A2 *55:7 0
34 *26:8 *489:B2 0
35 *26:8 *495:A1 0
36 *26:8 *82:68 0
37 *26:8 *83:19 0
38 *26:8 *83:23 0
39 *26:8 *83:29 0
40 *26:10 *506:A 0
41 *26:10 *79:31 0
42 *26:15 *506:A 0
43 *26:15 *512:B1 0
44 *26:15 *27:8 0
45 *26:15 *85:19 0
46 *26:27 *511:B 0
47 *26:27 *511:C 0
48 *26:27 *85:19 0
49 *26:39 *511:C 0
50 *26:39 *31:19 0
51 *493:A *26:8 0
52 *493:A *26:10 0
53 *493:A *26:15 0
*RES
1 *495:X *26:8 23.1393 
2 *26:8 *26:10 2.55357 
3 *26:10 *26:15 16 
4 *26:15 *511:A 9.72857 
5 *26:15 *26:27 14.8929 
6 *26:27 *504:A 21.5321 
7 *26:27 *26:39 1.64286 
8 *26:39 *526:A2 18.8357 
9 *26:39 *503:B1 23.05 
10 *26:10 *496:B1 22.5321 
11 *26:8 *513:B1 24.3179 
*END

*D_NET *27 0.00118084
*CONN
*I *498:A2 I *D sky130_fd_sc_hd__a21oi_1
*I *499:C I *D sky130_fd_sc_hd__and3_1
*I *496:X O *D sky130_fd_sc_hd__a21o_1
*CAP
1 *498:A2 0
2 *499:C 0.000197085
3 *496:X 0.000393336
4 *27:8 0.00059042
5 *499:C *499:A 0
6 *27:8 *497:A 0
7 *27:8 *506:A 0
8 *493:A *27:8 0
9 *493:B *27:8 0
10 *496:B1 *27:8 0
11 *499:B *499:C 0
12 *499:B *27:8 0
13 *24:8 *27:8 0
14 *26:15 *27:8 0
*RES
1 *496:X *27:8 27.8 
2 *27:8 *499:C 23.2821 
3 *27:8 *498:A2 18.3 
*END

*D_NET *28 0.00179348
*CONN
*I *514:A I *D sky130_fd_sc_hd__nor2_1
*I *519:A I *D sky130_fd_sc_hd__or2_1
*I *498:B1 I *D sky130_fd_sc_hd__a21oi_1
*I *499:A I *D sky130_fd_sc_hd__and3_1
*I *497:Y O *D sky130_fd_sc_hd__nand2_1
*CAP
1 *514:A 0.000343259
2 *519:A 0
3 *498:B1 4.53482e-05
4 *499:A 0.000317989
5 *497:Y 8.87521e-05
6 *28:30 0.00044465
7 *28:23 0.00014674
8 *28:8 0.000406741
9 *498:B1 *29:13 0
10 *499:A *521:A1 0
11 *499:A *42:6 0
12 *499:A *49:12 0
13 *499:A *50:8 0
14 *514:A *515:B1 0
15 *514:A *521:B2 0
16 *514:A *41:8 0
17 *514:A *41:10 0
18 *514:A *45:13 0
19 *28:8 *497:A 0
20 *28:8 *42:6 0
21 *28:30 *49:12 0
22 *499:B *499:A 0
23 *499:B *28:8 0
24 *499:C *499:A 0
25 *24:8 *28:8 0
*RES
1 *497:Y *28:8 20.4786 
2 *28:8 *499:A 25.8179 
3 *28:8 *28:23 9 
4 *28:23 *498:B1 10.2464 
5 *28:23 *28:30 2.17857 
6 *28:30 *519:A 9.3 
7 *28:30 *514:A 35.175 
*END

*D_NET *29 0.00118589
*CONN
*I *500:A I *D sky130_fd_sc_hd__nor2_1
*I *522:A I *D sky130_fd_sc_hd__and3_1
*I *543:B1 I *D sky130_fd_sc_hd__a21oi_1
*I *498:Y O *D sky130_fd_sc_hd__a21oi_1
*CAP
1 *500:A 0
2 *522:A 0
3 *543:B1 0.000100357
4 *498:Y 0.000308629
5 *29:17 0.000284317
6 *29:13 0.000492588
7 *543:B1 *543:A2 0
8 *543:B1 *73:8 0
9 *29:13 *500:B 0
10 *29:13 *521:A1 0
11 *29:13 *49:12 0
12 *29:13 *50:8 0
13 *498:B1 *29:13 0
14 *499:B *29:13 0
*RES
1 *498:Y *29:13 35.3 
2 *29:13 *29:17 3.83929 
3 *29:17 *543:B1 29.7821 
4 *29:17 *522:A 9.3 
5 *29:13 *500:A 9.3 
*END

*D_NET *30 0.00014948
*CONN
*I *500:B I *D sky130_fd_sc_hd__nor2_1
*I *499:X O *D sky130_fd_sc_hd__and3_1
*CAP
1 *500:B 7.474e-05
2 *499:X 7.474e-05
3 *500:B *543:A1 0
4 *500:B *50:8 0
5 *29:13 *500:B 0
*RES
1 *499:X *500:B 38.5464 
*END

*D_NET *31 0.00163726
*CONN
*I *513:A1 I *D sky130_fd_sc_hd__a21o_1
*I *503:B2 I *D sky130_fd_sc_hd__a221o_1
*I *504:C I *D sky130_fd_sc_hd__nand3_1
*I *511:B I *D sky130_fd_sc_hd__nand3_1
*I *501:X O *D sky130_fd_sc_hd__a22o_1
*CAP
1 *513:A1 0
2 *503:B2 4.70594e-06
3 *504:C 0
4 *511:B 0.000282357
5 *501:X 3.97356e-05
6 *31:19 0.000489481
7 *31:13 0.00049654
8 *31:8 0.000324445
9 *511:B *511:C 0
10 *511:B *85:19 0
11 *31:8 *40:8 0
12 *31:13 *503:A1 0
13 *31:13 *503:C1 0
14 *31:13 *504:B 0
15 *31:13 *32:9 0
16 *31:19 *504:B 0
17 *503:B1 *31:13 0
18 *503:B1 *31:19 0
19 *504:A *511:B 0
20 *504:A *31:19 0
21 *26:27 *511:B 0
22 *26:39 *31:19 0
*RES
1 *501:X *31:8 28.3357 
2 *31:8 *31:13 5.91071 
3 *31:13 *31:19 23.2143 
4 *31:19 *511:B 15.1929 
5 *31:19 *504:C 9.3 
6 *31:13 *503:B2 9.42946 
7 *31:8 *513:A1 9.3 
*END

*D_NET *32 0.00137643
*CONN
*I *504:B I *D sky130_fd_sc_hd__nand3_1
*I *503:C1 I *D sky130_fd_sc_hd__a221o_1
*I *502:Y O *D sky130_fd_sc_hd__nand2_1
*CAP
1 *504:B 0.000210347
2 *503:C1 2.0535e-05
3 *502:Y 0.000457332
4 *32:9 0.000688214
5 *504:B *33:8 0
6 *32:9 *502:B 0
7 *503:B1 *503:C1 0
8 *503:B1 *504:B 0
9 *503:B1 *32:9 0
10 *513:B1 *32:9 0
11 *31:13 *503:C1 0
12 *31:13 *504:B 0
13 *31:13 *32:9 0
14 *31:19 *504:B 0
*RES
1 *502:Y *32:9 18.9071 
2 *32:9 *503:C1 9.72857 
3 *32:9 *504:B 32.6214 
*END

*D_NET *33 0.00197946
*CONN
*I *525:A1 I *D sky130_fd_sc_hd__a21oi_1
*I *509:B I *D sky130_fd_sc_hd__nand3_1
*I *508:A1 I *D sky130_fd_sc_hd__a21o_1
*I *503:X O *D sky130_fd_sc_hd__a221o_1
*CAP
1 *525:A1 2.56688e-05
2 *509:B 0.000324517
3 *508:A1 0
4 *503:X 0.000443437
5 *33:12 0.000520623
6 *33:8 0.000665212
7 *509:B *508:A2 0
8 *509:B *509:A 0
9 *509:B *509:C 0
10 *509:B *531:A 0
11 *509:B *531:B 0
12 *509:B *54:8 0
13 *509:B *59:10 0
14 *509:B *61:8 0
15 *525:A1 *525:B1 0
16 *33:8 *503:A1 0
17 *33:8 *503:A2 0
18 *33:8 *505:B 0
19 *33:8 *34:8 0
20 *33:8 *35:8 0
21 *33:8 *35:16 0
22 *33:8 *59:10 0
23 *33:8 *80:52 0
24 *33:8 *81:51 0
25 *33:12 *525:B1 0
26 *33:12 *34:8 0
27 *33:12 *34:10 0
28 *33:12 *35:16 0
29 *33:12 *37:8 0
30 *33:12 *53:10 0
31 *33:12 *54:8 0
32 *504:A *33:8 0
33 *504:B *33:8 0
*RES
1 *503:X *33:8 29.4964 
2 *33:8 *33:12 13.9821 
3 *33:12 *508:A1 9.3 
4 *33:12 *509:B 34.7107 
5 *33:8 *525:A1 18.8357 
*END

*D_NET *34 0.00168496
*CONN
*I *525:A2 I *D sky130_fd_sc_hd__a21oi_1
*I *508:A2 I *D sky130_fd_sc_hd__a21o_1
*I *509:C I *D sky130_fd_sc_hd__nand3_1
*I *504:Y O *D sky130_fd_sc_hd__nand3_1
*CAP
1 *525:A2 0
2 *508:A2 0.000100108
3 *509:C 0.000345748
4 *504:Y 0.000182006
5 *34:10 0.000660476
6 *34:8 0.000396626
7 *508:A2 *508:B1 0
8 *509:C *509:A 0
9 *509:C *38:10 0
10 *509:C *39:5 0
11 *34:8 *85:19 0
12 *34:10 *509:A 0
13 *34:10 *525:B1 0
14 *34:10 *37:8 0
15 *509:B *508:A2 0
16 *509:B *509:C 0
17 *33:8 *34:8 0
18 *33:12 *34:8 0
19 *33:12 *34:10 0
*RES
1 *504:Y *34:8 22.9071 
2 *34:8 *34:10 5.58929 
3 *34:10 *509:C 26.4786 
4 *34:10 *508:A2 20.3893 
5 *34:8 *525:A2 18.3 
*END

*D_NET *35 0.00116243
*CONN
*I *539:A1 I *D sky130_fd_sc_hd__a21oi_1
*I *524:A I *D sky130_fd_sc_hd__nor2_1
*I *507:A I *D sky130_fd_sc_hd__xnor2_1
*I *505:Y O *D sky130_fd_sc_hd__nand2_1
*CAP
1 *539:A1 0
2 *524:A 2.26741e-05
3 *507:A 0.000204495
4 *505:Y 0.000137368
5 *35:16 0.000443846
6 *35:8 0.000354045
7 *507:A *524:B 0
8 *507:A *53:10 0
9 *35:8 *59:10 0
10 *35:8 *85:19 0
11 *35:16 *54:8 0
12 *35:16 *59:10 0
13 *33:8 *35:8 0
14 *33:8 *35:16 0
15 *33:12 *35:16 0
*RES
1 *505:Y *35:8 21.6036 
2 *35:8 *35:16 14.6429 
3 *35:16 *507:A 13.5679 
4 *35:16 *524:A 9.83571 
5 *35:8 *539:A1 18.3 
*END

*D_NET *36 0.0018993
*CONN
*I *519:B I *D sky130_fd_sc_hd__or2_1
*I *507:B I *D sky130_fd_sc_hd__xnor2_1
*I *524:B I *D sky130_fd_sc_hd__nor2_1
*I *514:B I *D sky130_fd_sc_hd__nor2_1
*I *506:Y O *D sky130_fd_sc_hd__nand2_1
*CAP
1 *519:B 0
2 *507:B 0
3 *524:B 0.000143103
4 *514:B 2.0535e-05
5 *506:Y 0.000246667
6 *36:23 0.000342892
7 *36:15 0.000559878
8 *36:8 0.00058622
9 *36:8 *42:6 0
10 *36:8 *43:10 0
11 *36:8 *85:19 0
12 *36:15 *515:A2 0
13 *36:15 *515:B1 0
14 *36:15 *42:6 0
15 *36:15 *43:10 0
16 *36:15 *45:13 0
17 *507:A *524:B 0
*RES
1 *506:Y *36:8 24.2464 
2 *36:8 *36:15 16.625 
3 *36:15 *514:B 9.72857 
4 *36:15 *36:23 4.23214 
5 *36:23 *524:B 12.3179 
6 *36:23 *507:B 9.3 
7 *36:8 *519:B 18.3 
*END

*D_NET *37 0.00121989
*CONN
*I *525:B1 I *D sky130_fd_sc_hd__a21oi_1
*I *508:B1 I *D sky130_fd_sc_hd__a21o_1
*I *509:A I *D sky130_fd_sc_hd__nand3_1
*I *507:Y O *D sky130_fd_sc_hd__xnor2_1
*CAP
1 *525:B1 0.000129561
2 *508:B1 4.62038e-05
3 *509:A 0.000301203
4 *507:Y 2.56688e-05
5 *37:8 0.000454717
6 *37:7 0.00026254
7 *509:A *516:C 0
8 *509:A *517:A2 0
9 *509:A *531:B 0
10 *509:A *39:5 0
11 *509:A *53:10 0
12 *37:8 *53:10 0
13 *508:A2 *508:B1 0
14 *509:B *509:A 0
15 *509:C *509:A 0
16 *525:A1 *525:B1 0
17 *33:12 *525:B1 0
18 *33:12 *37:8 0
19 *34:10 *509:A 0
20 *34:10 *525:B1 0
21 *34:10 *37:8 0
*RES
1 *507:Y *37:7 18.8357 
2 *37:7 *37:8 2.85714 
3 *37:8 *509:A 25.3179 
4 *37:8 *508:B1 19.2643 
5 *37:7 *525:B1 21.4429 
*END

*D_NET *38 0.00047216
*CONN
*I *516:A I *D sky130_fd_sc_hd__and3_1
*I *517:A1 I *D sky130_fd_sc_hd__a21o_1
*I *508:X O *D sky130_fd_sc_hd__a21o_1
*CAP
1 *516:A 0
2 *517:A1 0.000124066
3 *508:X 0.000112014
4 *38:10 0.00023608
5 *517:A1 *516:C 0
6 *517:A1 *517:A2 0
7 *509:C *38:10 0
*RES
1 *508:X *38:10 30.0857 
2 *38:10 *517:A1 11.8893 
3 *38:10 *516:A 9.3 
*END

*D_NET *39 0.000668244
*CONN
*I *516:B I *D sky130_fd_sc_hd__and3_1
*I *517:A2 I *D sky130_fd_sc_hd__a21o_1
*I *509:Y O *D sky130_fd_sc_hd__nand3_1
*CAP
1 *516:B 0
2 *517:A2 0.000193371
3 *509:Y 0.00014075
4 *39:5 0.000334122
5 *517:A2 *516:C 0
6 *509:A *517:A2 0
7 *509:A *39:5 0
8 *509:C *39:5 0
9 *517:A1 *517:A2 0
*RES
1 *509:Y *39:5 12.3 
2 *39:5 *517:A2 13.3357 
3 *39:5 *516:B 9.3 
*END

*D_NET *40 0.000983354
*CONN
*I *513:A2 I *D sky130_fd_sc_hd__a21o_1
*I *526:B1_N I *D sky130_fd_sc_hd__a21boi_1
*I *511:C I *D sky130_fd_sc_hd__nand3_1
*I *510:Y O *D sky130_fd_sc_hd__nand4_1
*CAP
1 *513:A2 0
2 *526:B1_N 0.000104386
3 *511:C 0.000112065
4 *510:Y 0.000179571
5 *40:10 0.000312105
6 *40:8 0.000275225
7 *511:C *43:10 0
8 *526:B1_N *84:30 0
9 *40:8 *80:40 0
10 *40:8 *80:48 0
11 *40:8 *81:17 0
12 *40:8 *82:37 0
13 *40:10 *43:10 0
14 *503:B1 *511:C 0
15 *503:B1 *40:10 0
16 *511:B *511:C 0
17 *26:27 *511:C 0
18 *26:39 *511:C 0
19 *31:8 *40:8 0
*RES
1 *510:Y *40:8 22.9071 
2 *40:8 *40:10 2.55357 
3 *40:10 *511:C 21.0857 
4 *40:10 *526:B1_N 20.4786 
5 *40:8 *513:A2 18.3 
*END

*D_NET *41 0.00134642
*CONN
*I *520:A I *D sky130_fd_sc_hd__nand4_1
*I *515:A1 I *D sky130_fd_sc_hd__a31o_1
*I *521:B2 I *D sky130_fd_sc_hd__a22o_1
*I *511:Y O *D sky130_fd_sc_hd__nand3_1
*CAP
1 *520:A 0.000299897
2 *515:A1 0
3 *521:B2 8.63967e-05
4 *511:Y 0.000249546
5 *41:10 0.000123767
6 *41:8 0.000586813
7 *520:A *515:A2 0
8 *520:A *520:C 0
9 *520:A *50:8 0
10 *521:B2 *521:A2 0
11 *521:B2 *521:B1 0
12 *521:B2 *43:10 0
13 *521:B2 *45:13 0
14 *41:8 *43:10 0
15 *41:10 *43:10 0
16 *514:A *521:B2 0
17 *514:A *41:8 0
18 *514:A *41:10 0
*RES
1 *511:Y *41:8 24.7286 
2 *41:8 *41:10 1.03571 
3 *41:10 *521:B2 20.55 
4 *41:10 *515:A1 18.3 
5 *41:8 *520:A 24.4964 
*END

*D_NET *42 0.00141078
*CONN
*I *515:A2 I *D sky130_fd_sc_hd__a31o_1
*I *520:C I *D sky130_fd_sc_hd__nand4_1
*I *521:A2 I *D sky130_fd_sc_hd__a22o_1
*I *512:X O *D sky130_fd_sc_hd__a22o_1
*CAP
1 *515:A2 4.23535e-05
2 *520:C 0.00016428
3 *521:A2 0.000155914
4 *512:X 0.000342844
5 *42:19 0.000206634
6 *42:6 0.000498758
7 *515:A2 *45:13 0
8 *520:C *520:D 0
9 *520:C *50:8 0
10 *521:A2 *521:B1 0
11 *521:A2 *45:13 0
12 *521:A2 *50:8 0
13 *42:6 *497:B 0
14 *42:6 *43:10 0
15 *499:A *42:6 0
16 *520:A *515:A2 0
17 *520:A *520:C 0
18 *521:B2 *521:A2 0
19 *24:8 *42:6 0
20 *28:8 *42:6 0
21 *36:8 *42:6 0
22 *36:15 *515:A2 0
23 *36:15 *42:6 0
*RES
1 *512:X *42:6 27.2286 
2 *42:6 *521:A2 22.1214 
3 *42:6 *42:19 9 
4 *42:19 *520:C 12.7286 
5 *42:19 *515:A2 10.2464 
*END

*D_NET *43 0.00148701
*CONN
*I *515:A3 I *D sky130_fd_sc_hd__a31o_1
*I *520:D I *D sky130_fd_sc_hd__nand4_1
*I *521:B1 I *D sky130_fd_sc_hd__a22o_1
*I *513:X O *D sky130_fd_sc_hd__a21o_1
*CAP
1 *515:A3 0
2 *520:D 0.000143745
3 *521:B1 6.77117e-05
4 *513:X 0.000526478
5 *43:21 0.000149316
6 *43:10 0.000599761
7 *43:10 *497:B 0
8 *43:10 *71:27 0
9 *511:C *43:10 0
10 *513:B1 *43:10 0
11 *520:C *520:D 0
12 *521:A2 *521:B1 0
13 *521:B2 *521:B1 0
14 *521:B2 *43:10 0
15 *36:8 *43:10 0
16 *36:15 *43:10 0
17 *40:10 *43:10 0
18 *41:8 *43:10 0
19 *41:10 *43:10 0
20 *42:6 *43:10 0
*RES
1 *513:X *43:10 31.7911 
2 *43:10 *521:B1 20.0946 
3 *43:10 *43:21 9.27679 
4 *43:21 *520:D 12.3 
5 *43:21 *515:A3 9.3 
*END

*D_NET *44 0.00028749
*CONN
*I *515:B1 I *D sky130_fd_sc_hd__a31o_1
*I *514:Y O *D sky130_fd_sc_hd__nor2_1
*CAP
1 *515:B1 0.000143745
2 *514:Y 0.000143745
3 *515:B1 *45:13 0
4 *514:A *515:B1 0
5 *36:15 *515:B1 0
*RES
1 *514:Y *515:B1 21.6 
*END

*D_NET *45 0.00129429
*CONN
*I *517:B1 I *D sky130_fd_sc_hd__a21o_1
*I *516:C I *D sky130_fd_sc_hd__and3_1
*I *515:X O *D sky130_fd_sc_hd__a31o_1
*CAP
1 *517:B1 0
2 *516:C 0.000239789
3 *515:X 0.000407358
4 *45:13 0.000647147
5 *45:13 *50:8 0
6 *45:13 *51:8 0
7 *509:A *516:C 0
8 *514:A *45:13 0
9 *515:A2 *45:13 0
10 *515:B1 *45:13 0
11 *517:A1 *516:C 0
12 *517:A2 *516:C 0
13 *521:A2 *45:13 0
14 *521:B2 *45:13 0
15 *36:15 *45:13 0
*RES
1 *515:X *45:13 36.7643 
2 *45:13 *516:C 14.3357 
3 *45:13 *517:B1 9.3 
*END

*D_NET *46 0.000617946
*CONN
*I *518:A_N I *D sky130_fd_sc_hd__and2b_1
*I *535:B1 I *D sky130_fd_sc_hd__a21o_1
*I *516:X O *D sky130_fd_sc_hd__and3_1
*CAP
1 *518:A_N 0.000200644
2 *535:B1 0
3 *516:X 0.000108329
4 *46:9 0.000308973
5 *518:A_N *535:A1 0
6 *518:A_N *535:A2 0
*RES
1 *516:X *46:9 29.8893 
2 *46:9 *535:B1 9.3 
3 *46:9 *518:A_N 13.55 
*END

*D_NET *47 0.000587823
*CONN
*I *535:A1 I *D sky130_fd_sc_hd__a21o_1
*I *518:B I *D sky130_fd_sc_hd__and2b_1
*I *517:X O *D sky130_fd_sc_hd__a21o_1
*CAP
1 *535:A1 0.000202783
2 *518:B 5.37751e-05
3 *517:X 3.73529e-05
4 *47:6 0.000293911
5 *518:B *52:6 0
6 *518:B *52:10 0
7 *535:A1 *535:A2 0
8 *47:6 *52:6 0
9 *518:A_N *535:A1 0
*RES
1 *517:X *47:6 19.3357 
2 *47:6 *518:B 19.6393 
3 *47:6 *535:A1 22.5321 
*END

*D_NET *48 0.000279501
*CONN