*SPEF "ieee 1481-1999"
*DESIGN "tt2_tholin_multiplexed_counter"
*DATE "11:11:11 Fri 11 11, 1111"
*VENDOR "OpenRCX"
*PROGRAM "Parallel Extraction"
*VERSION "1.0"
*DESIGN_FLOW "NAME_SCOPE LOCAL" "PIN_CAP NONE"
*DIVIDER /
*DELIMITER :
*BUS_DELIMITER []
*T_UNIT 1 NS
*C_UNIT 1 PF
*R_UNIT 1 OHM
*L_UNIT 1 HENRY

*NAME_MAP
*1 clk
*2 io_out[0]
*3 io_out[10]
*4 io_out[11]
*5 io_out[1]
*6 io_out[2]
*7 io_out[3]
*8 io_out[4]
*9 io_out[5]
*10 io_out[6]
*11 io_out[7]
*12 io_out[8]
*13 io_out[9]
*14 rst
*17 CIRCUIT_1111\.MEMORY_2\.d
*18 CIRCUIT_1111\.MEMORY_2\.s_currentState
*19 CIRCUIT_1111\.MEMORY_3\.d
*20 CIRCUIT_1111\.MEMORY_3\.s_currentState
*21 CIRCUIT_1111\.MEMORY_4\.d
*22 CIRCUIT_1111\.MEMORY_6\.d
*23 CIRCUIT_1111\.MEMORY_6\.s_currentState
*24 CIRCUIT_1111\.MEMORY_7\.d
*25 CIRCUIT_1111\.MEMORY_7\.s_currentState
*26 CIRCUIT_1111\.custom_counter_10_1\.MEMORY_1\.d
*27 CIRCUIT_1111\.custom_counter_10_1\.MEMORY_1\.s_currentState
*28 CIRCUIT_1111\.custom_counter_10_1\.MEMORY_10\.clock
*29 CIRCUIT_1111\.custom_counter_10_1\.MEMORY_10\.d
*30 CIRCUIT_1111\.custom_counter_10_1\.MEMORY_10\.s_currentState
*31 CIRCUIT_1111\.custom_counter_10_1\.MEMORY_2\.d
*32 CIRCUIT_1111\.custom_counter_10_1\.MEMORY_2\.s_currentState
*33 CIRCUIT_1111\.custom_counter_10_1\.MEMORY_3\.d
*34 CIRCUIT_1111\.custom_counter_10_1\.MEMORY_3\.s_currentState
*35 CIRCUIT_1111\.custom_counter_10_1\.MEMORY_4\.d
*36 CIRCUIT_1111\.custom_counter_10_1\.MEMORY_4\.s_currentState
*37 CIRCUIT_1111\.custom_counter_10_1\.MEMORY_5\.d
*38 CIRCUIT_1111\.custom_counter_10_1\.MEMORY_5\.s_currentState
*39 CIRCUIT_1111\.custom_counter_10_1\.MEMORY_6\.d
*40 CIRCUIT_1111\.custom_counter_10_1\.MEMORY_6\.s_currentState
*41 CIRCUIT_1111\.custom_counter_10_1\.MEMORY_7\.clock
*42 CIRCUIT_1111\.custom_counter_10_1\.MEMORY_7\.d
*43 CIRCUIT_1111\.custom_counter_10_1\.MEMORY_7\.s_currentState
*44 CIRCUIT_1111\.custom_counter_10_1\.MEMORY_8\.s_currentState
*45 CIRCUIT_1111\.custom_counter_10_1\.MEMORY_9\.s_currentState
*46 CIRCUIT_1111\.full_counter_1\.ARITH_1\.aEqualsB
*47 CIRCUIT_1111\.full_counter_1\.ARITH_2\.aEqualsB
*48 CIRCUIT_1111\.full_counter_1\.MEMORY_3\.s_currentState
*49 CIRCUIT_1111\.full_counter_1\.MEMORY_6\.s_currentState
*50 CIRCUIT_1111\.full_counter_1\.custom_counter_4_1\.MEMORY_1\.d
*51 CIRCUIT_1111\.full_counter_1\.custom_counter_4_1\.MEMORY_1\.s_currentState
*52 CIRCUIT_1111\.full_counter_1\.custom_counter_4_1\.MEMORY_2\.d
*53 CIRCUIT_1111\.full_counter_1\.custom_counter_4_1\.MEMORY_2\.s_currentState
*54 CIRCUIT_1111\.full_counter_1\.custom_counter_4_1\.MEMORY_3\.d
*55 CIRCUIT_1111\.full_counter_1\.custom_counter_4_1\.MEMORY_3\.s_currentState
*56 CIRCUIT_1111\.full_counter_1\.custom_counter_4_1\.MEMORY_4\.d
*57 CIRCUIT_1111\.full_counter_1\.custom_counter_4_1\.MEMORY_4\.s_currentState
*58 CIRCUIT_1111\.full_counter_1\.custom_counter_4_2\.MEMORY_1\.d
*59 CIRCUIT_1111\.full_counter_1\.custom_counter_4_2\.MEMORY_1\.s_currentState
*60 CIRCUIT_1111\.full_counter_1\.custom_counter_4_2\.MEMORY_2\.d
*61 CIRCUIT_1111\.full_counter_1\.custom_counter_4_2\.MEMORY_2\.s_currentState
*62 CIRCUIT_1111\.full_counter_1\.custom_counter_4_2\.MEMORY_3\.d
*63 CIRCUIT_1111\.full_counter_1\.custom_counter_4_2\.MEMORY_3\.s_currentState
*64 CIRCUIT_1111\.full_counter_1\.custom_counter_4_2\.MEMORY_4\.d
*65 CIRCUIT_1111\.full_counter_1\.custom_counter_4_2\.MEMORY_4\.s_currentState
*66 CIRCUIT_1111\.full_counter_1\.seconds_counter_1\.ARITH_1\.aEqualsB
*67 CIRCUIT_1111\.full_counter_1\.seconds_counter_1\.ARITH_4\.aEqualsB
*68 CIRCUIT_1111\.full_counter_1\.seconds_counter_1\.MEMORY_5\.s_currentState
*69 CIRCUIT_1111\.full_counter_1\.seconds_counter_1\.MEMORY_6\.s_currentState
*70 CIRCUIT_1111\.full_counter_1\.seconds_counter_1\.custom_counter_4_1\.MEMORY_1\.d
*71 CIRCUIT_1111\.full_counter_1\.seconds_counter_1\.custom_counter_4_1\.MEMORY_1\.s_currentState
*72 CIRCUIT_1111\.full_counter_1\.seconds_counter_1\.custom_counter_4_1\.MEMORY_2\.d
*73 CIRCUIT_1111\.full_counter_1\.seconds_counter_1\.custom_counter_4_1\.MEMORY_2\.s_currentState
*74 CIRCUIT_1111\.full_counter_1\.seconds_counter_1\.custom_counter_4_1\.MEMORY_3\.d
*75 CIRCUIT_1111\.full_counter_1\.seconds_counter_1\.custom_counter_4_1\.MEMORY_3\.s_currentState
*76 CIRCUIT_1111\.full_counter_1\.seconds_counter_1\.custom_counter_4_1\.MEMORY_4\.d
*77 CIRCUIT_1111\.full_counter_1\.seconds_counter_1\.custom_counter_4_1\.MEMORY_4\.s_currentState
*78 CIRCUIT_1111\.full_counter_1\.seconds_counter_1\.custom_counter_4_2\.MEMORY_1\.d
*79 CIRCUIT_1111\.full_counter_1\.seconds_counter_1\.custom_counter_4_2\.MEMORY_1\.s_currentState
*80 CIRCUIT_1111\.full_counter_1\.seconds_counter_1\.custom_counter_4_2\.MEMORY_2\.d
*81 CIRCUIT_1111\.full_counter_1\.seconds_counter_1\.custom_counter_4_2\.MEMORY_2\.s_currentState
*82 CIRCUIT_1111\.full_counter_1\.seconds_counter_1\.custom_counter_4_2\.MEMORY_3\.d
*83 CIRCUIT_1111\.full_counter_1\.seconds_counter_1\.custom_counter_4_2\.MEMORY_3\.s_currentState
*84 _007_
*85 _009_
*86 _011_
*87 _013_
*88 _015_
*89 _017_
*90 _019_
*91 _021_
*92 _023_
*93 _026_
*94 _027_
*95 _028_
*96 _029_
*97 _030_
*98 _031_
*99 _032_
*100 _033_
*101 _034_
*102 _035_
*103 _036_
*104 _037_
*105 _038_
*106 _041_
*107 _042_
*108 _043_
*109 _044_
*110 _045_
*111 _046_
*112 _047_
*113 _048_
*114 _049_
*115 _050_
*116 _051_
*117 _052_
*118 _053_
*119 _054_
*120 _056_
*121 _058_
*122 _060_
*123 _062_
*124 _064_
*125 _065_
*126 _066_
*127 _067_
*128 _068_
*129 _069_
*130 _070_
*131 _071_
*132 _072_
*133 _073_
*134 _074_
*135 _075_
*136 _076_
*137 _077_
*138 _078_
*139 _079_
*140 _080_
*141 _081_
*142 _082_
*143 _083_
*144 _084_
*145 _085_
*146 _086_
*147 _087_
*148 _088_
*149 _089_
*150 _090_
*151 _091_
*152 _092_
*153 _093_
*154 _094_
*155 clknet_0__068_
*156 clknet_0_clk
*157 clknet_1_0__leaf_clk
*158 clknet_1_1__leaf_clk
*159 clknet_2_0__leaf__068_
*160 clknet_2_1__leaf__068_
*161 clknet_2_2__leaf__068_
*162 clknet_2_3__leaf__068_
*163 net1
*164 net10
*165 net11
*166 net12
*167 net13
*168 net14
*169 net15
*170 net16
*171 net17
*172 net18
*173 net19
*174 net2
*175 net20
*176 net21
*177 net22
*178 net23
*179 net24
*180 net25
*181 net26
*182 net27
*183 net28
*184 net29
*185 net3
*186 net30
*187 net31
*188 net32
*189 net33
*190 net34
*191 net35
*192 net36
*193 net37
*194 net4
*195 net5
*196 net6
*197 net7
*198 net8
*199 net9
*200 prev_sel
*201 FILLER_0_106
*202 FILLER_0_11
*203 FILLER_0_113
*204 FILLER_0_121
*205 FILLER_0_131
*206 FILLER_0_139
*207 FILLER_0_141
*208 FILLER_0_149
*209 FILLER_0_15
*210 FILLER_0_157
*211 FILLER_0_166
*212 FILLER_0_169
*213 FILLER_0_180
*214 FILLER_0_188
*215 FILLER_0_22
*216 FILLER_0_29
*217 FILLER_0_3
*218 FILLER_0_33
*219 FILLER_0_40
*220 FILLER_0_52
*221 FILLER_0_57
*222 FILLER_0_65
*223 FILLER_0_69
*224 FILLER_0_76
*225 FILLER_0_85
*226 FILLER_0_94
*227 FILLER_10_100
*228 FILLER_10_11
*229 FILLER_10_121
*230 FILLER_10_130
*231 FILLER_10_138
*232 FILLER_10_141
*233 FILLER_10_166
*234 FILLER_10_17
*235 FILLER_10_178
*236 FILLER_10_24
*237 FILLER_10_29
*238 FILLER_10_3
*239 FILLER_10_36
*240 FILLER_10_44
*241 FILLER_10_65
*242 FILLER_10_77
*243 FILLER_10_83
*244 FILLER_10_85
*245 FILLER_10_94
*246 FILLER_11_110
*247 FILLER_11_113
*248 FILLER_11_136
*249 FILLER_11_143
*250 FILLER_11_155
*251 FILLER_11_167
*252 FILLER_11_169
*253 FILLER_11_181
*254 FILLER_11_189
*255 FILLER_11_3
*256 FILLER_11_38
*257 FILLER_11_47
*258 FILLER_11_55
*259 FILLER_11_57
*260 FILLER_11_77
*261 FILLER_11_85
*262 FILLER_12_104
*263 FILLER_12_125
*264 FILLER_12_136
*265 FILLER_12_141
*266 FILLER_12_148
*267 FILLER_12_15
*268 FILLER_12_160
*269 FILLER_12_172
*270 FILLER_12_184
*271 FILLER_12_19
*272 FILLER_12_26
*273 FILLER_12_29
*274 FILLER_12_3
*275 FILLER_12_38
*276 FILLER_12_50
*277 FILLER_12_54
*278 FILLER_12_76
*279 FILLER_12_85
*280 FILLER_12_96
*281 FILLER_13_106
*282 FILLER_13_110
*283 FILLER_13_113
*284 FILLER_13_136
*285 FILLER_13_148
*286 FILLER_13_15
*287 FILLER_13_160
*288 FILLER_13_169
*289 FILLER_13_181
*290 FILLER_13_189
*291 FILLER_13_3
*292 FILLER_13_37
*293 FILLER_13_49
*294 FILLER_13_55
*295 FILLER_13_57
*296 FILLER_13_82
*297 FILLER_13_94
*298 FILLER_14_101
*299 FILLER_14_105
*300 FILLER_14_112
*301 FILLER_14_135
*302 FILLER_14_139
*303 FILLER_14_141
*304 FILLER_14_15
*305 FILLER_14_153
*306 FILLER_14_165
*307 FILLER_14_177
*308 FILLER_14_189
*309 FILLER_14_19
*310 FILLER_14_26
*311 FILLER_14_29
*312 FILLER_14_3
*313 FILLER_14_36
*314 FILLER_14_48
*315 FILLER_14_60
*316 FILLER_14_68
*317 FILLER_14_77
*318 FILLER_14_83
*319 FILLER_14_85
*320 FILLER_14_97
*321 FILLER_15_103
*322 FILLER_15_110
*323 FILLER_15_113
*324 FILLER_15_121
*325 FILLER_15_133
*326 FILLER_15_14
*327 FILLER_15_145
*328 FILLER_15_157
*329 FILLER_15_165
*330 FILLER_15_169
*331 FILLER_15_181
*332 FILLER_15_189
*333 FILLER_15_3
*334 FILLER_15_39
*335 FILLER_15_51
*336 FILLER_15_55
*337 FILLER_15_57
*338 FILLER_15_66
*339 FILLER_15_91
*340 FILLER_16_105
*341 FILLER_16_127
*342 FILLER_16_139
*343 FILLER_16_141
*344 FILLER_16_15
*345 FILLER_16_153
*346 FILLER_16_165
*347 FILLER_16_177
*348 FILLER_16_189
*349 FILLER_16_26
*350 FILLER_16_29
*351 FILLER_16_3
*352 FILLER_16_52
*353 FILLER_16_59
*354 FILLER_16_68
*355 FILLER_16_77
*356 FILLER_16_83
*357 FILLER_16_85
*358 FILLER_16_92
*359 FILLER_16_99
*360 FILLER_17_110
*361 FILLER_17_113
*362 FILLER_17_125
*363 FILLER_17_15
*364 FILLER_17_156
*365 FILLER_17_169
*366 FILLER_17_181
*367 FILLER_17_189
*368 FILLER_17_3
*369 FILLER_17_38
*370 FILLER_17_46
*371 FILLER_17_54
*372 FILLER_17_57
*373 FILLER_17_61
*374 FILLER_17_83
*375 FILLER_17_89
*376 FILLER_18_121
*377 FILLER_18_133
*378 FILLER_18_138
*379 FILLER_18_141
*380 FILLER_18_15
*381 FILLER_18_166
*382 FILLER_18_178
*383 FILLER_18_27
*384 FILLER_18_29
*385 FILLER_18_3
*386 FILLER_18_40
*387 FILLER_18_55
*388 FILLER_18_82
*389 FILLER_18_85
*390 FILLER_18_90
*391 FILLER_18_98
*392 FILLER_19_106
*393 FILLER_19_110
*394 FILLER_19_113
*395 FILLER_19_118
*396 FILLER_19_130
*397 FILLER_19_142
*398 FILLER_19_146
*399 FILLER_19_15
*400 FILLER_19_153
*401 FILLER_19_160
*402 FILLER_19_169
*403 FILLER_19_181
*404 FILLER_19_189
*405 FILLER_19_27
*406 FILLER_19_3
*407 FILLER_19_39
*408 FILLER_19_51
*409 FILLER_19_55
*410 FILLER_19_57
*411 FILLER_19_82
*412 FILLER_19_94
*413 FILLER_1_109
*414 FILLER_1_113
*415 FILLER_1_125
*416 FILLER_1_137
*417 FILLER_1_149
*418 FILLER_1_15
*419 FILLER_1_162
*420 FILLER_1_169
*421 FILLER_1_180
*422 FILLER_1_188
*423 FILLER_1_3
*424 FILLER_1_38
*425 FILLER_1_46
*426 FILLER_1_50
*427 FILLER_1_57
*428 FILLER_1_64
*429 FILLER_1_75
*430 FILLER_1_85
*431 FILLER_1_97
*432 FILLER_20_119
*433 FILLER_20_131
*434 FILLER_20_138
*435 FILLER_20_141
*436 FILLER_20_148
*437 FILLER_20_15
*438 FILLER_20_160
*439 FILLER_20_172
*440 FILLER_20_184
*441 FILLER_20_27
*442 FILLER_20_29
*443 FILLER_20_3
*444 FILLER_20_41
*445 FILLER_20_53
*446 FILLER_20_65
*447 FILLER_20_69
*448 FILLER_20_81
*449 FILLER_20_85
*450 FILLER_20_93
*451 FILLER_21_104
*452 FILLER_21_108
*453 FILLER_21_113
*454 FILLER_21_125
*455 FILLER_21_133
*456 FILLER_21_15
*457 FILLER_21_159
*458 FILLER_21_167
*459 FILLER_21_169
*460 FILLER_21_181
*461 FILLER_21_189
*462 FILLER_21_27
*463 FILLER_21_3
*464 FILLER_21_39
*465 FILLER_21_51
*466 FILLER_21_55
*467 FILLER_21_57
*468 FILLER_21_69
*469 FILLER_21_81
*470 FILLER_21_92
*471 FILLER_22_110
*472 FILLER_22_122
*473 FILLER_22_134
*474 FILLER_22_141
*475 FILLER_22_146
*476 FILLER_22_15
*477 FILLER_22_153
*478 FILLER_22_165
*479 FILLER_22_177
*480 FILLER_22_189
*481 FILLER_22_27
*482 FILLER_22_29
*483 FILLER_22_3
*484 FILLER_22_41
*485 FILLER_22_53
*486 FILLER_22_65
*487 FILLER_22_77
*488 FILLER_22_83
*489 FILLER_22_85
*490 FILLER_22_93
*491 FILLER_22_98
*492 FILLER_23_104
*493 FILLER_23_113
*494 FILLER_23_128
*495 FILLER_23_143
*496 FILLER_23_15
*497 FILLER_23_153
*498 FILLER_23_160
*499 FILLER_23_169
*500 FILLER_23_181
*501 FILLER_23_189
*502 FILLER_23_27
*503 FILLER_23_3
*504 FILLER_23_39
*505 FILLER_23_51
*506 FILLER_23_55
*507 FILLER_23_57
*508 FILLER_23_69
*509 FILLER_24_110
*510 FILLER_24_114
*511 FILLER_24_138
*512 FILLER_24_141
*513 FILLER_24_15
*514 FILLER_24_166
*515 FILLER_24_178
*516 FILLER_24_27
*517 FILLER_24_29
*518 FILLER_24_3
*519 FILLER_24_41
*520 FILLER_24_53
*521 FILLER_24_65
*522 FILLER_24_71
*523 FILLER_24_75
*524 FILLER_24_82
*525 FILLER_24_85
*526 FILLER_25_103
*527 FILLER_25_110
*528 FILLER_25_113
*529 FILLER_25_119
*530 FILLER_25_123
*531 FILLER_25_130
*532 FILLER_25_15
*533 FILLER_25_157
*534 FILLER_25_164
*535 FILLER_25_169
*536 FILLER_25_181
*537 FILLER_25_189
*538 FILLER_25_27
*539 FILLER_25_3
*540 FILLER_25_39
*541 FILLER_25_51
*542 FILLER_25_55
*543 FILLER_25_57
*544 FILLER_25_69
*545 FILLER_25_77
*546 FILLER_25_82
*547 FILLER_25_89
*548 FILLER_25_96
*549 FILLER_26_116
*550 FILLER_26_128
*551 FILLER_26_141
*552 FILLER_26_147
*553 FILLER_26_15
*554 FILLER_26_154
*555 FILLER_26_161
*556 FILLER_26_173
*557 FILLER_26_185
*558 FILLER_26_189
*559 FILLER_26_27
*560 FILLER_26_29
*561 FILLER_26_3
*562 FILLER_26_41
*563 FILLER_26_53
*564 FILLER_26_65
*565 FILLER_26_77
*566 FILLER_26_83
*567 FILLER_26_85
*568 FILLER_27_106
*569 FILLER_27_113
*570 FILLER_27_125
*571 FILLER_27_137
*572 FILLER_27_141
*573 FILLER_27_149
*574 FILLER_27_15
*575 FILLER_27_155
*576 FILLER_27_167
*577 FILLER_27_169
*578 FILLER_27_181
*579 FILLER_27_189
*580 FILLER_27_27
*581 FILLER_27_29
*582 FILLER_27_3
*583 FILLER_27_41
*584 FILLER_27_53
*585 FILLER_27_57
*586 FILLER_27_69
*587 FILLER_27_81
*588 FILLER_27_85
*589 FILLER_27_97
*590 FILLER_2_101
*591 FILLER_2_107
*592 FILLER_2_127
*593 FILLER_2_139
*594 FILLER_2_141
*595 FILLER_2_146
*596 FILLER_2_15
*597 FILLER_2_166
*598 FILLER_2_179
*599 FILLER_2_187
*600 FILLER_2_19
*601 FILLER_2_23
*602 FILLER_2_27
*603 FILLER_2_29
*604 FILLER_2_3
*605 FILLER_2_48
*606 FILLER_2_54
*607 FILLER_2_58
*608 FILLER_2_68
*609 FILLER_2_80
*610 FILLER_2_85
*611 FILLER_2_93
*612 FILLER_3_101
*613 FILLER_3_109
*614 FILLER_3_11
*615 FILLER_3_113
*616 FILLER_3_121
*617 FILLER_3_129
*618 FILLER_3_136
*619 FILLER_3_156
*620 FILLER_3_166
*621 FILLER_3_169
*622 FILLER_3_187
*623 FILLER_3_3
*624 FILLER_3_37
*625 FILLER_3_49
*626 FILLER_3_55
*627 FILLER_3_57
*628 FILLER_3_64
*629 FILLER_3_75
*630 FILLER_3_85
*631 FILLER_3_94
*632 FILLER_4_10
*633 FILLER_4_103
*634 FILLER_4_132
*635 FILLER_4_141
*636 FILLER_4_155
*637 FILLER_4_17
*638 FILLER_4_175
*639 FILLER_4_185
*640 FILLER_4_189
*641 FILLER_4_26
*642 FILLER_4_29
*643 FILLER_4_3
*644 FILLER_4_36
*645 FILLER_4_48
*646 FILLER_4_60
*647 FILLER_4_69
*648 FILLER_4_79
*649 FILLER_4_83
*650 FILLER_4_85
*651 FILLER_4_91
*652 FILLER_5_106
*653 FILLER_5_110
*654 FILLER_5_113
*655 FILLER_5_122
*656 FILLER_5_129
*657 FILLER_5_137
*658 FILLER_5_142
*659 FILLER_5_151
*660 FILLER_5_159
*661 FILLER_5_166
*662 FILLER_5_169
*663 FILLER_5_175
*664 FILLER_5_18
*665 FILLER_5_181
*666 FILLER_5_188
*667 FILLER_5_29
*668 FILLER_5_3
*669 FILLER_5_42
*670 FILLER_5_54
*671 FILLER_5_57
*672 FILLER_5_69
*673 FILLER_5_73
*674 FILLER_5_79
*675 FILLER_5_86
*676 FILLER_5_98
*677 FILLER_6_102
*678 FILLER_6_11
*679 FILLER_6_127
*680 FILLER_6_134
*681 FILLER_6_141
*682 FILLER_6_153
*683 FILLER_6_159
*684 FILLER_6_163
*685 FILLER_6_17
*686 FILLER_6_175
*687 FILLER_6_187
*688 FILLER_6_26
*689 FILLER_6_29
*690 FILLER_6_3
*691 FILLER_6_52
*692 FILLER_6_64
*693 FILLER_6_75
*694 FILLER_6_82
*695 FILLER_6_85
*696 FILLER_6_90
*697 FILLER_7_104
*698 FILLER_7_113
*699 FILLER_7_118
*700 FILLER_7_130
*701 FILLER_7_138
*702 FILLER_7_144
*703 FILLER_7_15
*704 FILLER_7_159
*705 FILLER_7_167
*706 FILLER_7_169
*707 FILLER_7_181
*708 FILLER_7_189
*709 FILLER_7_3
*710 FILLER_7_42
*711 FILLER_7_54
*712 FILLER_7_57
*713 FILLER_7_72
*714 FILLER_7_97
*715 FILLER_8_121
*716 FILLER_8_133
*717 FILLER_8_139
*718 FILLER_8_141
*719 FILLER_8_15
*720 FILLER_8_164
*721 FILLER_8_176
*722 FILLER_8_188
*723 FILLER_8_27
*724 FILLER_8_29
*725 FILLER_8_3
*726 FILLER_8_34
*727 FILLER_8_41
*728 FILLER_8_65
*729 FILLER_8_81
*730 FILLER_8_85
*731 FILLER_8_89
*732 FILLER_8_93
*733 FILLER_9_105
*734 FILLER_9_111
*735 FILLER_9_113
*736 FILLER_9_120
*737 FILLER_9_132
*738 FILLER_9_140
*739 FILLER_9_144
*740 FILLER_9_15
*741 FILLER_9_152
*742 FILLER_9_156
*743 FILLER_9_163
*744 FILLER_9_167
*745 FILLER_9_169
*746 FILLER_9_181
*747 FILLER_9_189
*748 FILLER_9_27
*749 FILLER_9_3
*750 FILLER_9_48
*751 FILLER_9_57
*752 FILLER_9_67
*753 FILLER_9_93
*754 FILLER_9_99
*755 PHY_0
*756 PHY_1
*757 PHY_10
*758 PHY_11
*759 PHY_12
*760 PHY_13
*761 PHY_14
*762 PHY_15
*763 PHY_16
*764 PHY_17
*765 PHY_18
*766 PHY_19
*767 PHY_2
*768 PHY_20
*769 PHY_21
*770 PHY_22
*771 PHY_23
*772 PHY_24
*773 PHY_25
*774 PHY_26
*775 PHY_27
*776 PHY_28
*777 PHY_29
*778 PHY_3
*779 PHY_30
*780 PHY_31
*781 PHY_32
*782 PHY_33
*783 PHY_34
*784 PHY_35
*785 PHY_36
*786 PHY_37
*787 PHY_38
*788 PHY_39
*789 PHY_4
*790 PHY_40
*791 PHY_41
*792 PHY_42
*793 PHY_43
*794 PHY_44
*795 PHY_45
*796 PHY_46
*797 PHY_47
*798 PHY_48
*799 PHY_49
*800 PHY_5
*801 PHY_50
*802 PHY_51
*803 PHY_52
*804 PHY_53
*805 PHY_54
*806 PHY_55
*807 PHY_6
*808 PHY_7
*809 PHY_8
*810 PHY_9
*811 TAP_100
*812 TAP_101
*813 TAP_102
*814 TAP_103
*815 TAP_104
*816 TAP_105
*817 TAP_106
*818 TAP_107
*819 TAP_108
*820 TAP_109
*821 TAP_110
*822 TAP_111
*823 TAP_112
*824 TAP_113
*825 TAP_114
*826 TAP_115
*827 TAP_116
*828 TAP_117
*829 TAP_118
*830 TAP_119
*831 TAP_120
*832 TAP_121
*833 TAP_122
*834 TAP_123
*835 TAP_124
*836 TAP_125
*837 TAP_126
*838 TAP_127
*839 TAP_128
*840 TAP_129
*841 TAP_130
*842 TAP_131
*843 TAP_132
*844 TAP_133
*845 TAP_134
*846 TAP_135
*847 TAP_136
*848 TAP_137
*849 TAP_138
*850 TAP_139
*851 TAP_140
*852 TAP_141
*853 TAP_142
*854 TAP_143
*855 TAP_144
*856 TAP_145
*857 TAP_56
*858 TAP_57
*859 TAP_58
*860 TAP_59
*861 TAP_60
*862 TAP_61
*863 TAP_62
*864 TAP_63
*865 TAP_64
*866 TAP_65
*867 TAP_66
*868 TAP_67
*869 TAP_68
*870 TAP_69
*871 TAP_70
*872 TAP_71
*873 TAP_72
*874 TAP_73
*875 TAP_74
*876 TAP_75
*877 TAP_76
*878 TAP_77
*879 TAP_78
*880 TAP_79
*881 TAP_80
*882 TAP_81
*883 TAP_82
*884 TAP_83
*885 TAP_84
*886 TAP_85
*887 TAP_86
*888 TAP_87
*889 TAP_88
*890 TAP_89
*891 TAP_90
*892 TAP_91
*893 TAP_92
*894 TAP_93
*895 TAP_94
*896 TAP_95
*897 TAP_96
*898 TAP_97
*899 TAP_98
*900 TAP_99
*901 _095_
*902 _096_
*903 _097_
*904 _098_
*905 _099_
*906 _100_
*907 _101_
*908 _102_
*909 _103_
*910 _104_
*911 _105_
*912 _106_
*913 _107_
*914 _108_
*915 _109_
*916 _110_
*917 _111_
*918 _112_
*919 _113_
*920 _114_
*921 _115_
*922 _116_
*923 _117_
*924 _118_
*925 _119_
*926 _120_
*927 _121_
*928 _122_
*929 _123_
*930 _124_
*931 _125__1
*932 _126_
*933 _127__10
*934 _128_
*935 _129_
*936 _130_
*937 _131_
*938 _132_
*939 _133_
*940 _134_
*941 _135_
*942 _136_
*943 _137_
*944 _138_
*945 _139_
*946 _140_
*947 _141_
*948 _142_
*949 _143_
*950 _144_
*951 _145_
*952 _146_
*953 _147_
*954 _148_
*955 _149_
*956 _150_
*957 _151_
*958 _152_
*959 _153_
*960 _154_
*961 _155_
*962 _156_
*963 _157_
*964 _158_
*965 _159_
*966 _160_
*967 _161_
*968 _162_
*969 _163_
*970 _164_
*971 _165_
*972 _166_
*973 _167_
*974 _168_
*975 _169_
*976 _170_
*977 _171_
*978 _172_
*979 _173__11
*980 _174__12
*981 _175__13
*982 _176_
*983 _177_
*984 _178_
*985 _179_
*986 _180_
*987 _181_
*988 _182_
*989 _183_
*990 _184__14
*991 _185__15
*992 _186__16
*993 _187__17
*994 _188__18
*995 _189__19
*996 _190__20
*997 _191__21
*998 _192__22
*999 _193__2
*1000 _194__3
*1001 _195__4
*1002 _196__5
*1003 _197__23
*1004 _198_
*1005 _199_
*1006 _200_
*1007 _201_
*1008 _202_
*1009 _203_
*1010 _204_
*1011 _205_
*1012 _206_
*1013 _207__6
*1014 _208__7
*1015 _209_
*1016 _210_
*1017 _211_
*1018 _212_
*1019 _213_
*1020 _214_
*1021 _215_
*1022 _216__8
*1023 _217__9
*1024 _218_
*1025 _219_
*1026 _220_
*1027 _221_
*1028 _222_
*1029 _223_
*1030 _224_
*1031 _225_
*1032 _226_
*1033 _227_
*1034 _228_
*1035 _229_
*1036 _230__24
*1037 _231_
*1038 _232_
*1039 _233_
*1040 _234_
*1041 _235_
*1042 _236_
*1043 _237_
*1044 _238_
*1045 _239_
*1046 _240_
*1047 _241_
*1048 _242_
*1049 _243_
*1050 _244_
*1051 _245_
*1052 _246_
*1053 _247_
*1054 _248_
*1055 _249_
*1056 _250_
*1057 _251_
*1058 _252_
*1059 _253_
*1060 _254_
*1061 _255_
*1062 _256_
*1063 _257_
*1064 _258_
*1065 _259_
*1066 _260_
*1067 _261_
*1068 _262_
*1069 _263_
*1070 _264_
*1071 _265_
*1072 _266_
*1073 _267_
*1074 _268_
*1075 _269_
*1076 clkbuf_0__068_
*1077 clkbuf_0_clk
*1078 clkbuf_1_0__f_clk
*1079 clkbuf_1_1__f_clk
*1080 clkbuf_2_0__f__068_
*1081 clkbuf_2_1__f__068_
*1082 clkbuf_2_2__f__068_
*1083 clkbuf_2_3__f__068_
*1084 input1
*1085 output10
*1086 output11
*1087 output12
*1088 output13
*1089 output2
*1090 output3
*1091 output4
*1092 output5
*1093 output6
*1094 output7
*1095 output8
*1096 output9

*PORTS
clk I
io_out[0] O
io_out[10] O
io_out[11] O
io_out[1] O
io_out[2] O
io_out[3] O
io_out[4] O
io_out[5] O
io_out[6] O
io_out[7] O
io_out[8] O
io_out[9] O
rst I

*D_NET *1 0.00605212
*CONN
*P clk I
*I *1077:A I *D sky130_fd_sc_hd__clkbuf_16
*CAP
1 clk 0.00181354
2 *1077:A 0
3 *1:13 0.00121252
4 *1:8 0.00302606
5 *1:8 *990:A 0
6 *1:8 *1010:A 0
7 *1:8 *1048:D 0
8 *1:8 *1051:RESET_B 0
9 *1:8 *162:22 0
10 *1:13 *904:A 0
11 *1:13 *923:A 0
12 *1:13 *950:C 0
13 *1:13 *951:A0 0
14 *1:13 *957:C_N 0
15 *1:13 *1018:A 0
16 *1:13 *1047:D 0
17 *1:13 *1049:RESET_B 0
18 *1:13 *1057:CLK 0
19 *1:13 *1057:D 0
20 *1:13 *1083:A 0
21 *1:13 *71:16 0
22 *1:13 *155:14 0
23 *1:13 *162:22 0
*RES
1 clk *1:8 49.7857 
2 *1:8 *1:13 49.3929 
3 *1:13 *1077:A 9.3 
*END

*D_NET *2 0.000958231
*CONN
*P io_out[0] O
*I *1089:X O *D sky130_fd_sc_hd__buf_4
*CAP
1 io_out[0] 0.000479116
2 *1089:X 0.000479116
*RES
1 *1089:X io_out[0] 29.7286 
*END

*D_NET *3 0.00150747
*CONN
*P io_out[10] O
*I *1090:X O *D sky130_fd_sc_hd__buf_4
*CAP
1 io_out[10] 0.000753733
2 *1090:X 0.000753733
3 io_out[10] *939:A0 0
4 io_out[10] *939:S 0
5 io_out[10] *945:S 0
6 io_out[10] *1090:A 0
7 io_out[10] *1091:A 0
8 io_out[10] *185:10 0
9 io_out[10] *194:11 0
*RES
1 *1090:X io_out[10] 37.3893 
*END

*D_NET *4 0.00191401
*CONN
*P io_out[11] O
*I *1091:X O *D sky130_fd_sc_hd__buf_4
*CAP
1 io_out[11] 0.000957006
2 *1091:X 0.000957006
*RES
1 *1091:X io_out[11] 42.175 
*END

*D_NET *5 0.00068272
*CONN
*P io_out[1] O
*I *1092:X O *D sky130_fd_sc_hd__buf_4
*CAP
1 io_out[1] 0.00034136
2 *1092:X 0.00034136
3 io_out[1] *1089:A 0
*RES
1 *1092:X io_out[1] 26.8536 
*END

*D_NET *6 0.00068272
*CONN
*P io_out[2] O
*I *1093:X O *D sky130_fd_sc_hd__buf_4
*CAP
1 io_out[2] 0.00034136
2 *1093:X 0.00034136
3 io_out[2] *195:17 0
*RES
1 *1093:X io_out[2] 26.8536 
*END

*D_NET *7 0.000958231
*CONN
*P io_out[3] O
*I *1094:X O *D sky130_fd_sc_hd__buf_4
*CAP
1 io_out[3] 0.000479116
2 *1094:X 0.000479116
3 io_out[3] *195:17 0
*RES
1 *1094:X io_out[3] 29.7286 
*END

*D_NET *8 0.000722079
*CONN
*P io_out[4] O
*I *1095:X O *D sky130_fd_sc_hd__buf_4
*CAP
1 io_out[4] 0.000361039
2 *1095:X 0.000361039
3 io_out[4] *1095:A 0
*RES
1 *1095:X io_out[4] 27.2643 
*END

*D_NET *9 0.000722079
*CONN
*P io_out[5] O
*I *1096:X O *D sky130_fd_sc_hd__buf_4
*CAP
1 io_out[5] 0.000361039
2 *1096:X 0.000361039
*RES
1 *1096:X io_out[5] 27.2643 
*END

*D_NET *10 0.00106726
*CONN
*P io_out[6] O
*I *1085:X O *D sky130_fd_sc_hd__buf_4
*CAP
1 io_out[6] 0.000533628
2 *1085:X 0.000533628
*RES
1 *1085:X io_out[6] 31.2107 
*END

*D_NET *11 0.000721873
*CONN
*P io_out[7] O
*I *1086:X O *D sky130_fd_sc_hd__buf_4
*CAP
1 io_out[7] 0.000360936
2 *1086:X 0.000360936
*RES
1 *1086:X io_out[7] 27.2643 
*END

*D_NET *12 0.000722079
*CONN
*P io_out[8] O
*I *1087:X O *D sky130_fd_sc_hd__buf_4
*CAP
1 io_out[8] 0.000361039
2 *1087:X 0.000361039
*RES
1 *1087:X io_out[8] 27.2643 
*END

*D_NET *13 0.00068272
*CONN
*P io_out[9] O
*I *1088:X O *D sky130_fd_sc_hd__buf_4
*CAP
1 io_out[9] 0.00034136
2 *1088:X 0.00034136
*RES
1 *1088:X io_out[9] 26.8536 
*END

*D_NET *14 0.000783241
*CONN
*P rst I
*I *1084:A I *D sky130_fd_sc_hd__clkbuf_2
*CAP
1 rst 0.000391621
2 *1084:A 0.000391621
*RES
1 rst *1084:A 28.2643 
*END

*D_NET *17 0.000154191
*CONN
*I *1075:D I *D sky130_fd_sc_hd__dfrtp_4
*I *930:Y O *D sky130_fd_sc_hd__inv_2
*CAP
1 *1075:D 7.70954e-05
2 *930:Y 7.70954e-05
3 *1075:D *1075:RESET_B 0
4 *1075:D *158:28 0
5 *1075:D *158:34 0
*RES
1 *930:Y *1075:D 38.475 
*END

*D_NET *18 0.00102707
*CONN
*I *1035:A I *D sky130_fd_sc_hd__inv_2
*I *930:A I *D sky130_fd_sc_hd__inv_2
*I *1075:Q O *D sky130_fd_sc_hd__dfrtp_4
*CAP
1 *1035:A 0
2 *930:A 0.000380112
3 *1075:Q 0.000133424
4 *18:13 0.000513536
5 *930:A *933:A 0
6 *930:A *161:42 0
7 *18:13 *158:9 0
8 *18:13 *161:42 0
*RES
1 *1075:Q *18:13 30.4429 
2 *18:13 *930:A 17.2643 
3 *18:13 *1035:A 9.3 
*END

*D_NET *19 0.000272233
*CONN
*I *1074:D I *D sky130_fd_sc_hd__dfrtp_2
*I *929:Y O *D sky130_fd_sc_hd__inv_2
*CAP
1 *1074:D 0.000136116
2 *929:Y 0.000136116
3 *1074:D *1074:CLK 0
4 *1074:D *20:8 0
*RES
1 *929:Y *1074:D 39.7071 
*END

*D_NET *20 0.00151095
*CONN
*I *929:A I *D sky130_fd_sc_hd__inv_2
*I *1034:A I *D sky130_fd_sc_hd__inv_2
*I *1074:Q O *D sky130_fd_sc_hd__dfrtp_2
*CAP
1 *929:A 0
2 *1034:A 0.000273135
3 *1074:Q 0.00048234
4 *20:8 0.000755475
5 *1034:A *163:14 0
6 *20:8 *163:14 0
7 *1074:D *20:8 0
*RES
1 *1074:Q *20:8 28.6929 
2 *20:8 *1034:A 24.5679 
3 *20:8 *929:A 18.3 
*END

*D_NET *21 0.000551201
*CONN
*I *1073:D I *D sky130_fd_sc_hd__dfrtp_2
*I *938:A I *D sky130_fd_sc_hd__nor2_2
*I *918:Y O *D sky130_fd_sc_hd__inv_2
*CAP
1 *1073:D 5.14266e-05
2 *938:A 0.000103103
3 *918:Y 0.000121071
4 *21:5 0.000275601
5 *938:A *129:17 0
6 *21:5 *129:17 0
*RES
1 *918:Y *21:5 11.8893 
2 *21:5 *938:A 11.5143 
3 *21:5 *1073:D 28.6393 
*END

*D_NET *22 0.000413657
*CONN
*I *1072:D I *D sky130_fd_sc_hd__dfrtp_2
*I *901:Y O *D sky130_fd_sc_hd__inv_2
*CAP
1 *1072:D 0.000206828
2 *901:Y 0.000206828
3 *1072:D *23:11 0
4 *1072:D *161:11 0
*RES
1 *901:Y *1072:D 41.2429 
*END

*D_NET *23 0.00646916
*CONN
*I *901:A I *D sky130_fd_sc_hd__inv_2
*I *1032:A I *D sky130_fd_sc_hd__inv_2
*I *957:A I *D sky130_fd_sc_hd__or3b_2
*I *958:B1 I *D sky130_fd_sc_hd__o21ai_2
*I *952:S1 I *D sky130_fd_sc_hd__mux4_2
*I *951:S0 I *D sky130_fd_sc_hd__mux4_2
*I *955:C I *D sky130_fd_sc_hd__and3b_1
*I *963:S I *D sky130_fd_sc_hd__mux2_1
*I *956:A I *D sky130_fd_sc_hd__nor2_1
*I *1072:Q O *D sky130_fd_sc_hd__dfrtp_2
*CAP
1 *901:A 0
2 *1032:A 0
3 *957:A 0
4 *958:B1 0.000265591
5 *952:S1 8.85573e-05
6 *951:S0 0.000366622
7 *955:C 0
8 *963:S 0.000512734
9 *956:A 0.000367072
10 *1072:Q 0.00023517
11 *23:66 0.000544188
12 *23:38 0.000753379
13 *23:24 0.000668384
14 *23:23 0.000499071
15 *23:19 0.000819015
16 *23:11 0.0008357
17 *23:9 0.000513676
18 *951:S0 *951:A0 0
19 *951:S0 *135:12 0
20 *951:S0 *157:28 0
21 *952:S1 *952:A2 0
22 *952:S1 *959:A 0
23 *956:A *956:B 0
24 *956:A *964:A2 0
25 *956:A *25:5 0
26 *956:A *157:6 0
27 *958:B1 *951:A1 0
28 *958:B1 *952:A1 0
29 *958:B1 *958:A1 0
30 *963:S *963:A0 0
31 *963:S *146:11 0
32 *23:9 *161:11 0
33 *23:19 *957:C_N 0
34 *23:19 *964:A1 0
35 *23:19 *981:A 0
36 *23:19 *1071:CLK 0
37 *23:19 *140:13 0
38 *23:23 *957:B 0
39 *23:23 *140:13 0
40 *23:23 *159:59 0
41 *23:24 *157:28 0
42 *23:38 *138:10 0
43 *23:66 *951:A1 0
44 *1072:D *23:11 0
*RES
1 *1072:Q *23:9 32.6571 
2 *23:9 *23:11 5.875 
3 *23:11 *23:19 31.1071 
4 *23:19 *23:23 14.4643 
5 *23:23 *23:24 1.64286 
6 *23:24 *956:A 27.0143 
7 *23:24 *23:38 14.0536 
8 *23:38 *963:S 20.0321 
9 *23:38 *955:C 9.3 
10 *23:23 *951:S0 13.2589 
11 *951:S0 *23:66 13.1875 
12 *23:66 *952:S1 20.2107 
13 *23:66 *958:B1 24.9429 
14 *23:19 *957:A 9.3 
15 *23:11 *1032:A 9.3 
16 *23:9 *901:A 9.3 
*END

*D_NET *24 0.00064981
*CONN
*I *1071:D I *D sky130_fd_sc_hd__dfrtp_2
*I *902:Y O *D sky130_fd_sc_hd__inv_2
*CAP
1 *1071:D 0.000324905
2 *902:Y 0.000324905
3 *1071:D *143:8 0
4 *1071:D *147:8 0
*RES
1 *902:Y *1071:D 43.7071 
*END

*D_NET *25 0.00406812
*CONN
*I *902:A I *D sky130_fd_sc_hd__inv_2
*I *956:B I *D sky130_fd_sc_hd__nor2_1
*I *964:B2 I *D sky130_fd_sc_hd__a22o_2
*I *958:A1 I *D sky130_fd_sc_hd__o21ai_2
*I *952:S0 I *D sky130_fd_sc_hd__mux4_2
*I *959:A I *D sky130_fd_sc_hd__nand2_1
*I *951:S1 I *D sky130_fd_sc_hd__mux4_2
*I *957:B I *D sky130_fd_sc_hd__or3b_2
*I *955:B I *D sky130_fd_sc_hd__and3b_1
*I *1071:Q O *D sky130_fd_sc_hd__dfrtp_2
*CAP
1 *902:A 0.000143316
2 *956:B 6.43859e-05
3 *964:B2 0
4 *958:A1 0.000242278
5 *952:S0 0
6 *959:A 0.000344389
7 *951:S1 6.50276e-05
8 *957:B 0.000379898
9 *955:B 8.4707e-05
10 *1071:Q 0
11 *25:58 0.000267991
12 *25:45 0.000467813
13 *25:32 0.000235078
14 *25:23 0.000606175
15 *25:14 0.00041777
16 *25:10 0.000277145
17 *25:5 0.000245615
18 *25:4 0.000226525
19 *902:A *157:6 0
20 *951:S1 *951:A1 0
21 *955:B *138:10 0
22 *957:B *159:59 0
23 *958:A1 *951:A1 0
24 *958:A1 *952:A1 0
25 *958:A1 *960:A2 0
26 *958:A1 *157:28 0
27 *959:A *952:A2 0
28 *25:10 *135:12 0
29 *25:14 *63:14 0
30 *25:14 *135:12 0
31 *25:14 *146:11 0
32 *25:14 *155:21 0
33 *25:23 *63:14 0
34 *25:23 *135:12 0
35 *25:32 *952:A3 0
36 *25:32 *135:12 0
37 *25:45 *951:A1 0
38 *25:45 *952:A3 0
39 *25:45 *135:12 0
40 *25:45 *157:28 0
41 *25:58 *952:A1 0
42 *25:58 *157:28 0
43 *952:S1 *959:A 0
44 *956:A *956:B 0
45 *956:A *25:5 0
46 *958:B1 *958:A1 0
47 *23:23 *957:B 0
*RES
1 *1071:Q *25:4 9.3 
2 *25:4 *25:5 1.76786 
3 *25:5 *25:10 20.5536 
4 *25:10 *25:14 13.125 
5 *25:14 *955:B 20.0679 
6 *25:14 *25:23 4.07143 
7 *25:23 *957:B 26.2286 
8 *25:23 *25:32 1.94643 
9 *25:32 *951:S1 19.6571 
10 *25:32 *25:45 2.60714 
11 *25:45 *959:A 25.55 
12 *25:45 *25:58 0.732143 
13 *25:58 *952:S0 9 
14 *25:58 *958:A1 24.3357 
15 *25:10 *964:B2 9.3 
16 *25:5 *956:B 10.675 
17 *25:4 *902:A 30.8 
*END

*D_NET *26 0.000340698
*CONN
*I *1042:D I *D sky130_fd_sc_hd__dfrtp_4
*I *928:Y O *D sky130_fd_sc_hd__inv_2
*CAP
1 *1042:D 0.000170349
2 *928:Y 0.000170349
3 *1042:D *932:B 0
4 *1042:D *163:14 0
*RES
1 *928:Y *1042:D 40.9036 
*END

*D_NET *27 0.00132485
*CONN
*I *928:A I *D sky130_fd_sc_hd__inv_2
*I *1004:A I *D sky130_fd_sc_hd__inv_2
*I *1042:Q O *D sky130_fd_sc_hd__dfrtp_4
*CAP
1 *928:A 0.000346721
2 *1004:A 0.000105242
3 *1042:Q 0.000210462
4 *27:10 0.000662426
5 *928:A *1003:A 0
6 *928:A *1042:RESET_B 0
7 *928:A *1043:CLK 0
8 *928:A *128:10 0
9 *1004:A *1043:CLK 0
10 *27:10 *1042:RESET_B 0
11 *27:10 *1076:A 0
12 *27:10 *128:10 0
13 *27:10 *163:14 0
*RES