*SPEF "ieee 1481-1999"
*DESIGN "tt2_tholin_diceroll"
*DATE "11:11:11 Fri 11 11, 1111"
*VENDOR "OpenRCX"
*PROGRAM "Parallel Extraction"
*VERSION "1.0"
*DESIGN_FLOW "NAME_SCOPE LOCAL" "PIN_CAP NONE"
*DIVIDER /
*DELIMITER :
*BUS_DELIMITER []
*T_UNIT 1 NS
*C_UNIT 1 PF
*R_UNIT 1 OHM
*L_UNIT 1 HENRY

*NAME_MAP
*1 clk
*2 io_in
*3 io_out[0]
*4 io_out[1]
*5 io_out[2]
*6 io_out[3]
*7 io_out[4]
*8 io_out[5]
*9 io_out[6]
*10 io_out[7]
*11 rst
*14 _000_
*15 _001_
*16 _002_
*17 _003_
*18 _004_
*19 _005_
*20 _006_
*21 _007_
*22 _008_
*23 _009_
*24 _010_
*25 _011_
*26 _012_
*27 _013_
*28 _014_
*29 _015_
*30 _016_
*31 _017_
*32 _018_
*33 _019_
*34 _020_
*35 _021_
*36 _022_
*37 _023_
*38 _024_
*39 _025_
*40 _026_
*41 _027_
*42 _028_
*43 _029_
*44 _030_
*45 _031_
*46 _032_
*47 _033_
*48 _034_
*49 _035_
*50 _036_
*51 _037_
*52 _038_
*53 _039_
*54 _040_
*55 _041_
*56 _042_
*57 _043_
*58 _044_
*59 _045_
*60 _046_
*61 _047_
*62 _048_
*63 _049_
*64 _050_
*65 _051_
*66 _052_
*67 _053_
*68 _054_
*69 _055_
*70 _056_
*71 _057_
*72 _058_
*73 _059_
*74 _060_
*75 _061_
*76 _062_
*77 _063_
*78 _064_
*79 _065_
*80 _066_
*81 _067_
*82 _068_
*83 _069_
*84 _070_
*85 _071_
*86 _072_
*87 _073_
*88 _074_
*89 _075_
*90 _076_
*91 _077_
*92 _078_
*93 _079_
*94 _080_
*95 _081_
*96 _082_
*97 _083_
*98 _084_
*99 _085_
*100 _086_
*101 _087_
*102 _088_
*103 _089_
*104 _090_
*105 _091_
*106 _092_
*107 _093_
*108 _094_
*109 _095_
*110 _096_
*111 _097_
*112 _098_
*113 _099_
*114 _100_
*115 _101_
*116 _102_
*117 _103_
*118 _104_
*119 _105_
*120 _106_
*121 _107_
*122 _108_
*123 _109_
*124 _110_
*125 _111_
*126 _112_
*127 _113_
*128 _114_
*129 _115_
*130 _116_
*131 _117_
*132 _118_
*133 _119_
*134 _120_
*135 _121_
*136 _122_
*137 _123_
*138 _124_
*139 _125_
*140 _126_
*141 _127_
*142 _128_
*143 _129_
*144 _130_
*145 _131_
*146 _132_
*147 _133_
*148 _134_
*149 _135_
*150 _136_
*151 _137_
*152 _138_
*153 _139_
*154 _140_
*155 _141_
*156 _142_
*157 _143_
*158 _144_
*159 _145_
*160 _146_
*161 _147_
*162 _148_
*163 _149_
*164 _150_
*165 _151_
*166 _152_
*167 _153_
*168 _154_
*169 _155_
*170 _156_
*171 _157_
*172 _158_
*173 _159_
*174 _160_
*175 _161_
*176 _162_
*177 _163_
*178 _164_
*179 _165_
*180 _166_
*181 _167_
*182 _168_
*183 _169_
*184 _170_
*185 _171_
*186 _172_
*187 _173_
*188 _174_
*189 _175_
*190 _176_
*191 _177_
*192 _178_
*193 _179_
*194 _180_
*195 clknet_0_clk
*196 clknet_2_0__leaf_clk
*197 clknet_2_1__leaf_clk
*198 clknet_2_2__leaf_clk
*199 clknet_2_3__leaf_clk
*200 dice\.bcd\[0\]
*201 dice\.bcd\[1\]
*202 dice\.bcd\[2\]
*203 dice\.clkdiv\[0\]
*204 dice\.clkdiv\[1\]
*205 dice\.clkdiv\[2\]
*206 dice\.clkdiv\[3\]
*207 dice\.clkdiv\[4\]
*208 dice\.clkdiv\[5\]
*209 dice\.clkdiv\[6\]
*210 dice\.clkdiv\[7\]
*211 dice\.counter\[0\]
*212 dice\.counter\[10\]
*213 dice\.counter\[11\]
*214 dice\.counter\[12\]
*215 dice\.counter\[13\]
*216 dice\.counter\[14\]
*217 dice\.counter\[15\]
*218 dice\.counter\[1\]
*219 dice\.counter\[2\]
*220 dice\.counter\[3\]
*221 dice\.counter\[4\]
*222 dice\.counter\[5\]
*223 dice\.counter\[6\]
*224 dice\.counter\[7\]
*225 dice\.counter\[8\]
*226 dice\.counter\[9\]
*227 dice\.lfsr\[0\]
*228 dice\.lfsr\[10\]
*229 dice\.lfsr\[11\]
*230 dice\.lfsr\[12\]
*231 dice\.lfsr\[13\]
*232 dice\.lfsr\[14\]
*233 dice\.lfsr\[15\]
*234 dice\.lfsr\[1\]
*235 dice\.lfsr\[2\]
*236 dice\.lfsr\[3\]
*237 dice\.lfsr\[4\]
*238 dice\.lfsr\[5\]
*239 dice\.lfsr\[6\]
*240 dice\.lfsr\[7\]
*241 dice\.lfsr\[8\]
*242 dice\.lfsr\[9\]
*243 dice\.r_counter\[0\]
*244 dice\.r_counter\[1\]
*245 dice\.r_counter\[2\]
*246 net1
*247 net10
*248 net11
*249 net12
*250 net13
*251 net14
*252 net15
*253 net16
*254 net17
*255 net18
*256 net19
*257 net2
*258 net20
*259 net3
*260 net4
*261 net5
*262 net6
*263 net7
*264 net8
*265 net9
*266 FILLER_0_109
*267 FILLER_0_113
*268 FILLER_0_125
*269 FILLER_0_13
*270 FILLER_0_137
*271 FILLER_0_141
*272 FILLER_0_149
*273 FILLER_0_161
*274 FILLER_0_167
*275 FILLER_0_169
*276 FILLER_0_177
*277 FILLER_0_189
*278 FILLER_0_195
*279 FILLER_0_197
*280 FILLER_0_205
*281 FILLER_0_213
*282 FILLER_0_222
*283 FILLER_0_225
*284 FILLER_0_25
*285 FILLER_0_29
*286 FILLER_0_3
*287 FILLER_0_37
*288 FILLER_0_45
*289 FILLER_0_53
*290 FILLER_0_57
*291 FILLER_0_69
*292 FILLER_0_77
*293 FILLER_0_83
*294 FILLER_0_85
*295 FILLER_0_97
*296 FILLER_10_100
*297 FILLER_10_111
*298 FILLER_10_119
*299 FILLER_10_126
*300 FILLER_10_138
*301 FILLER_10_141
*302 FILLER_10_15
*303 FILLER_10_152
*304 FILLER_10_161
*305 FILLER_10_168
*306 FILLER_10_180
*307 FILLER_10_191
*308 FILLER_10_195
*309 FILLER_10_197
*310 FILLER_10_204
*311 FILLER_10_216
*312 FILLER_10_228
*313 FILLER_10_232
*314 FILLER_10_26
*315 FILLER_10_29
*316 FILLER_10_3
*317 FILLER_10_39
*318 FILLER_10_49
*319 FILLER_10_60
*320 FILLER_10_71
*321 FILLER_10_82
*322 FILLER_10_85
*323 FILLER_11_103
*324 FILLER_11_110
*325 FILLER_11_113
*326 FILLER_11_124
*327 FILLER_11_131
*328 FILLER_11_137
*329 FILLER_11_141
*330 FILLER_11_148
*331 FILLER_11_15
*332 FILLER_11_156
*333 FILLER_11_165
*334 FILLER_11_169
*335 FILLER_11_184
*336 FILLER_11_19
*337 FILLER_11_192
*338 FILLER_11_202
*339 FILLER_11_214
*340 FILLER_11_222
*341 FILLER_11_225
*342 FILLER_11_23
*343 FILLER_11_3
*344 FILLER_11_35
*345 FILLER_11_44
*346 FILLER_11_57
*347 FILLER_11_64
*348 FILLER_11_75
*349 FILLER_11_85
*350 FILLER_11_97
*351 FILLER_12_109
*352 FILLER_12_121
*353 FILLER_12_126
*354 FILLER_12_130
*355 FILLER_12_136
*356 FILLER_12_141
*357 FILLER_12_15
*358 FILLER_12_153
*359 FILLER_12_166
*360 FILLER_12_178
*361 FILLER_12_186
*362 FILLER_12_194
*363 FILLER_12_197
*364 FILLER_12_209
*365 FILLER_12_221
*366 FILLER_12_27
*367 FILLER_12_29
*368 FILLER_12_3
*369 FILLER_12_37
*370 FILLER_12_49
*371 FILLER_12_61
*372 FILLER_12_72
*373 FILLER_12_85
*374 FILLER_12_9
*375 FILLER_12_97
*376 FILLER_13_102
*377 FILLER_13_107
*378 FILLER_13_11
*379 FILLER_13_111
*380 FILLER_13_113
*381 FILLER_13_119
*382 FILLER_13_131
*383 FILLER_13_139
*384 FILLER_13_151
*385 FILLER_13_157
*386 FILLER_13_166
*387 FILLER_13_169
*388 FILLER_13_181
*389 FILLER_13_198
*390 FILLER_13_210
*391 FILLER_13_222
*392 FILLER_13_225
*393 FILLER_13_23
*394 FILLER_13_3
*395 FILLER_13_35
*396 FILLER_13_47
*397 FILLER_13_54
*398 FILLER_13_57
*399 FILLER_13_64
*400 FILLER_13_72
*401 FILLER_13_79
*402 FILLER_13_90
*403 FILLER_14_106
*404 FILLER_14_115
*405 FILLER_14_124
*406 FILLER_14_138
*407 FILLER_14_14
*408 FILLER_14_141
*409 FILLER_14_151
*410 FILLER_14_163
*411 FILLER_14_176
*412 FILLER_14_182
*413 FILLER_14_194
*414 FILLER_14_197
*415 FILLER_14_207
*416 FILLER_14_219
*417 FILLER_14_231
*418 FILLER_14_26
*419 FILLER_14_29
*420 FILLER_14_3
*421 FILLER_14_41
*422 FILLER_14_49
*423 FILLER_14_58
*424 FILLER_14_65
*425 FILLER_14_76
*426 FILLER_14_85
*427 FILLER_14_96
*428 FILLER_15_105
*429 FILLER_15_111
*430 FILLER_15_113
*431 FILLER_15_12
*432 FILLER_15_125
*433 FILLER_15_129
*434 FILLER_15_134
*435 FILLER_15_141
*436 FILLER_15_153
*437 FILLER_15_157
*438 FILLER_15_164
*439 FILLER_15_169
*440 FILLER_15_181
*441 FILLER_15_185
*442 FILLER_15_195
*443 FILLER_15_206
*444 FILLER_15_218
*445 FILLER_15_22
*446 FILLER_15_225
*447 FILLER_15_3
*448 FILLER_15_30
*449 FILLER_15_42
*450 FILLER_15_54
*451 FILLER_15_57
*452 FILLER_15_62
*453 FILLER_15_7
*454 FILLER_15_71
*455 FILLER_15_77
*456 FILLER_15_81
*457 FILLER_15_93
*458 FILLER_16_109
*459 FILLER_16_121
*460 FILLER_16_133
*461 FILLER_16_139
*462 FILLER_16_141
*463 FILLER_16_15
*464 FILLER_16_153
*465 FILLER_16_165
*466 FILLER_16_177
*467 FILLER_16_188
*468 FILLER_16_197
*469 FILLER_16_209
*470 FILLER_16_221
*471 FILLER_16_27
*472 FILLER_16_29
*473 FILLER_16_3
*474 FILLER_16_41
*475 FILLER_16_53
*476 FILLER_16_72
*477 FILLER_16_85
*478 FILLER_16_97
*479 FILLER_17_106
*480 FILLER_17_113
*481 FILLER_17_141
*482 FILLER_17_153
*483 FILLER_17_157
*484 FILLER_17_16
*485 FILLER_17_165
*486 FILLER_17_169
*487 FILLER_17_177
*488 FILLER_17_185
*489 FILLER_17_204
*490 FILLER_17_216
*491 FILLER_17_225
*492 FILLER_17_23
*493 FILLER_17_3
*494 FILLER_17_31
*495 FILLER_17_50
*496 FILLER_17_57
*497 FILLER_17_69
*498 FILLER_17_77
*499 FILLER_17_94
*500 FILLER_18_107
*501 FILLER_18_11
*502 FILLER_18_128
*503 FILLER_18_141
*504 FILLER_18_159
*505 FILLER_18_172
*506 FILLER_18_184
*507 FILLER_18_194
*508 FILLER_18_197
*509 FILLER_18_20
*510 FILLER_18_208
*511 FILLER_18_220
*512 FILLER_18_232
*513 FILLER_18_29
*514 FILLER_18_3
*515 FILLER_18_50
*516 FILLER_18_56
*517 FILLER_18_73
*518 FILLER_18_81
*519 FILLER_18_85
*520 FILLER_19_110
*521 FILLER_19_113
*522 FILLER_19_141
*523 FILLER_19_15
*524 FILLER_19_153
*525 FILLER_19_163
*526 FILLER_19_167
*527 FILLER_19_169
*528 FILLER_19_181
*529 FILLER_19_198
*530 FILLER_19_206
*531 FILLER_19_218
*532 FILLER_19_225
*533 FILLER_19_27
*534 FILLER_19_3
*535 FILLER_19_49
*536 FILLER_19_55
*537 FILLER_19_57
*538 FILLER_19_69
*539 FILLER_19_73
*540 FILLER_19_90
*541 FILLER_1_105
*542 FILLER_1_111
*543 FILLER_1_113
*544 FILLER_1_125
*545 FILLER_1_137
*546 FILLER_1_149
*547 FILLER_1_15
*548 FILLER_1_161
*549 FILLER_1_167
*550 FILLER_1_169
*551 FILLER_1_181
*552 FILLER_1_193
*553 FILLER_1_205
*554 FILLER_1_217
*555 FILLER_1_223
*556 FILLER_1_225
*557 FILLER_1_27
*558 FILLER_1_3
*559 FILLER_1_39
*560 FILLER_1_51
*561 FILLER_1_55
*562 FILLER_1_57
*563 FILLER_1_69
*564 FILLER_1_81
*565 FILLER_1_93
*566 FILLER_20_121
*567 FILLER_20_133
*568 FILLER_20_139
*569 FILLER_20_141
*570 FILLER_20_15
*571 FILLER_20_153
*572 FILLER_20_161
*573 FILLER_20_171
*574 FILLER_20_183
*575 FILLER_20_194
*576 FILLER_20_197
*577 FILLER_20_206
*578 FILLER_20_218
*579 FILLER_20_230
*580 FILLER_20_27
*581 FILLER_20_29
*582 FILLER_20_3
*583 FILLER_20_41
*584 FILLER_20_65
*585 FILLER_20_77
*586 FILLER_20_83
*587 FILLER_20_85
*588 FILLER_20_97
*589 FILLER_21_11
*590 FILLER_21_110
*591 FILLER_21_113
*592 FILLER_21_121
*593 FILLER_21_140
*594 FILLER_21_146
*595 FILLER_21_151
*596 FILLER_21_16
*597 FILLER_21_165
*598 FILLER_21_169
*599 FILLER_21_174
*600 FILLER_21_186
*601 FILLER_21_195
*602 FILLER_21_205
*603 FILLER_21_217
*604 FILLER_21_223
*605 FILLER_21_225
*606 FILLER_21_28
*607 FILLER_21_3
*608 FILLER_21_50
*609 FILLER_21_57
*610 FILLER_21_65
*611 FILLER_21_83
*612 FILLER_21_91
*613 FILLER_22_110
*614 FILLER_22_138
*615 FILLER_22_141
*616 FILLER_22_15
*617 FILLER_22_153
*618 FILLER_22_159
*619 FILLER_22_164
*620 FILLER_22_175
*621 FILLER_22_182
*622 FILLER_22_191
*623 FILLER_22_195
*624 FILLER_22_197
*625 FILLER_22_204
*626 FILLER_22_216
*627 FILLER_22_228
*628 FILLER_22_232
*629 FILLER_22_27
*630 FILLER_22_29
*631 FILLER_22_3
*632 FILLER_22_33
*633 FILLER_22_50
*634 FILLER_22_58
*635 FILLER_22_77
*636 FILLER_22_83
*637 FILLER_22_85
*638 FILLER_23_11
*639 FILLER_23_111
*640 FILLER_23_113
*641 FILLER_23_121
*642 FILLER_23_139
*643 FILLER_23_151
*644 FILLER_23_161
*645 FILLER_23_167
*646 FILLER_23_169
*647 FILLER_23_176
*648 FILLER_23_188
*649 FILLER_23_202
*650 FILLER_23_21
*651 FILLER_23_210
*652 FILLER_23_222
*653 FILLER_23_225
*654 FILLER_23_3
*655 FILLER_23_31
*656 FILLER_23_35
*657 FILLER_23_52
*658 FILLER_23_57
*659 FILLER_23_69
*660 FILLER_23_87
*661 FILLER_23_99
*662 FILLER_24_108
*663 FILLER_24_120
*664 FILLER_24_138
*665 FILLER_24_141
*666 FILLER_24_153
*667 FILLER_24_159
*668 FILLER_24_169
*669 FILLER_24_178
*670 FILLER_24_18
*671 FILLER_24_190
*672 FILLER_24_197
*673 FILLER_24_203
*674 FILLER_24_215
*675 FILLER_24_227
*676 FILLER_24_26
*677 FILLER_24_29
*678 FILLER_24_3
*679 FILLER_24_41
*680 FILLER_24_53
*681 FILLER_24_65
*682 FILLER_24_77
*683 FILLER_24_83
*684 FILLER_24_85
*685 FILLER_24_91
*686 FILLER_25_109
*687 FILLER_25_11
*688 FILLER_25_113
*689 FILLER_25_144
*690 FILLER_25_156
*691 FILLER_25_169
*692 FILLER_25_178
*693 FILLER_25_186
*694 FILLER_25_205
*695 FILLER_25_21
*696 FILLER_25_217
*697 FILLER_25_223
*698 FILLER_25_225
*699 FILLER_25_28
*700 FILLER_25_3
*701 FILLER_25_40
*702 FILLER_25_52
*703 FILLER_25_57
*704 FILLER_25_69
*705 FILLER_25_81
*706 FILLER_26_11
*707 FILLER_26_110
*708 FILLER_26_118
*709 FILLER_26_136
*710 FILLER_26_141
*711 FILLER_26_15
*712 FILLER_26_156
*713 FILLER_26_168
*714 FILLER_26_172
*715 FILLER_26_181
*716 FILLER_26_192
*717 FILLER_26_197
*718 FILLER_26_206
*719 FILLER_26_218
*720 FILLER_26_230
*721 FILLER_26_26
*722 FILLER_26_29
*723 FILLER_26_3
*724 FILLER_26_53
*725 FILLER_26_61
*726 FILLER_26_80
*727 FILLER_26_85
*728 FILLER_26_93
*729 FILLER_27_109
*730 FILLER_27_113
*731 FILLER_27_144
*732 FILLER_27_156
*733 FILLER_27_169
*734 FILLER_27_17
*735 FILLER_27_184
*736 FILLER_27_188
*737 FILLER_27_203
*738 FILLER_27_210
*739 FILLER_27_217
*740 FILLER_27_223
*741 FILLER_27_225
*742 FILLER_27_24
*743 FILLER_27_3
*744 FILLER_27_36
*745 FILLER_27_54
*746 FILLER_27_57
*747 FILLER_27_65
*748 FILLER_27_84
*749 FILLER_27_92
*750 FILLER_28_121
*751 FILLER_28_133
*752 FILLER_28_139
*753 FILLER_28_141
*754 FILLER_28_15
*755 FILLER_28_152
*756 FILLER_28_160
*757 FILLER_28_167
*758 FILLER_28_179
*759 FILLER_28_191
*760 FILLER_28_195
*761 FILLER_28_197
*762 FILLER_28_204
*763 FILLER_28_216
*764 FILLER_28_22
*765 FILLER_28_228
*766 FILLER_28_232
*767 FILLER_28_29
*768 FILLER_28_3
*769 FILLER_28_41
*770 FILLER_28_65
*771 FILLER_28_77
*772 FILLER_28_83
*773 FILLER_28_85
*774 FILLER_28_97
*775 FILLER_29_10
*776 FILLER_29_108
*777 FILLER_29_113
*778 FILLER_29_125
*779 FILLER_29_137
*780 FILLER_29_149
*781 FILLER_29_153
*782 FILLER_29_160
*783 FILLER_29_169
*784 FILLER_29_17
*785 FILLER_29_181
*786 FILLER_29_194
*787 FILLER_29_201
*788 FILLER_29_213
*789 FILLER_29_221
*790 FILLER_29_225
*791 FILLER_29_25
*792 FILLER_29_3
*793 FILLER_29_33
*794 FILLER_29_53
*795 FILLER_29_57
*796 FILLER_29_65
*797 FILLER_29_84
*798 FILLER_29_96
*799 FILLER_2_109
*800 FILLER_2_121
*801 FILLER_2_133
*802 FILLER_2_139
*803 FILLER_2_141
*804 FILLER_2_15
*805 FILLER_2_153
*806 FILLER_2_165
*807 FILLER_2_177
*808 FILLER_2_189
*809 FILLER_2_195
*810 FILLER_2_197
*811 FILLER_2_209
*812 FILLER_2_221
*813 FILLER_2_27
*814 FILLER_2_29
*815 FILLER_2_3
*816 FILLER_2_41
*817 FILLER_2_53
*818 FILLER_2_65
*819 FILLER_2_77
*820 FILLER_2_83
*821 FILLER_2_85
*822 FILLER_2_97
*823 FILLER_30_105
*824 FILLER_30_117
*825 FILLER_30_138
*826 FILLER_30_141
*827 FILLER_30_15
*828 FILLER_30_153
*829 FILLER_30_165
*830 FILLER_30_172
*831 FILLER_30_184
*832 FILLER_30_188
*833 FILLER_30_194
*834 FILLER_30_197
*835 FILLER_30_202
*836 FILLER_30_219
*837 FILLER_30_231
*838 FILLER_30_26
*839 FILLER_30_29
*840 FILLER_30_3
*841 FILLER_30_53
*842 FILLER_30_65
*843 FILLER_30_73
*844 FILLER_30_80
*845 FILLER_30_85
*846 FILLER_31_107
*847 FILLER_31_111
*848 FILLER_31_113
*849 FILLER_31_135
*850 FILLER_31_152
*851 FILLER_31_16
*852 FILLER_31_160
*853 FILLER_31_166
*854 FILLER_31_169
*855 FILLER_31_178
*856 FILLER_31_190
*857 FILLER_31_196
*858 FILLER_31_205
*859 FILLER_31_217
*860 FILLER_31_223
*861 FILLER_31_225
*862 FILLER_31_28
*863 FILLER_31_3
*864 FILLER_31_36
*865 FILLER_31_54
*866 FILLER_31_57
*867 FILLER_31_79
*868 FILLER_32_109
*869 FILLER_32_117
*870 FILLER_32_137
*871 FILLER_32_141
*872 FILLER_32_149
*873 FILLER_32_15
*874 FILLER_32_158
*875 FILLER_32_167
*876 FILLER_32_179
*877 FILLER_32_191
*878 FILLER_32_195
*879 FILLER_32_197
*880 FILLER_32_209
*881 FILLER_32_221
*882 FILLER_32_26
*883 FILLER_32_29
*884 FILLER_32_3
*885 FILLER_32_35
*886 FILLER_32_52
*887 FILLER_32_64
*888 FILLER_32_76
*889 FILLER_32_85
*890 FILLER_32_97
*891 FILLER_33_109
*892 FILLER_33_11
*893 FILLER_33_113
*894 FILLER_33_121
*895 FILLER_33_139
*896 FILLER_33_143
*897 FILLER_33_155
*898 FILLER_33_165
*899 FILLER_33_169
*900 FILLER_33_185
*901 FILLER_33_198
*902 FILLER_33_20
*903 FILLER_33_210
*904 FILLER_33_222
*905 FILLER_33_225
*906 FILLER_33_3
*907 FILLER_33_32
*908 FILLER_33_51
*909 FILLER_33_55
*910 FILLER_33_57
*911 FILLER_33_63
*912 FILLER_33_80
*913 FILLER_33_92
*914 FILLER_34_117
*915 FILLER_34_138
*916 FILLER_34_14
*917 FILLER_34_141
*918 FILLER_34_153
*919 FILLER_34_159
*920 FILLER_34_169
*921 FILLER_34_177
*922 FILLER_34_194
*923 FILLER_34_197
*924 FILLER_34_221
*925 FILLER_34_23
*926 FILLER_34_27
*927 FILLER_34_29
*928 FILLER_34_3
*929 FILLER_34_51
*930 FILLER_34_63
*931 FILLER_34_82
*932 FILLER_34_85
*933 FILLER_34_92
*934 FILLER_35_109
*935 FILLER_35_113
*936 FILLER_35_123
*937 FILLER_35_135
*938 FILLER_35_139
*939 FILLER_35_141
*940 FILLER_35_15
*941 FILLER_35_157
*942 FILLER_35_165
*943 FILLER_35_169
*944 FILLER_35_181
*945 FILLER_35_193
*946 FILLER_35_197
*947 FILLER_35_204
*948 FILLER_35_212
*949 FILLER_35_225
*950 FILLER_35_27
*951 FILLER_35_29
*952 FILLER_35_3
*953 FILLER_35_41
*954 FILLER_35_53
*955 FILLER_35_57
*956 FILLER_35_69
*957 FILLER_35_81
*958 FILLER_35_85
*959 FILLER_35_97
*960 FILLER_3_105
*961 FILLER_3_111
*962 FILLER_3_113
*963 FILLER_3_125
*964 FILLER_3_137
*965 FILLER_3_149
*966 FILLER_3_15
*967 FILLER_3_161
*968 FILLER_3_167
*969 FILLER_3_169
*970 FILLER_3_181
*971 FILLER_3_193
*972 FILLER_3_205
*973 FILLER_3_217
*974 FILLER_3_223
*975 FILLER_3_225
*976 FILLER_3_27
*977 FILLER_3_3
*978 FILLER_3_39
*979 FILLER_3_51
*980 FILLER_3_55
*981 FILLER_3_57
*982 FILLER_3_69
*983 FILLER_3_81
*984 FILLER_3_93
*985 FILLER_4_109
*986 FILLER_4_121
*987 FILLER_4_133
*988 FILLER_4_139
*989 FILLER_4_141
*990 FILLER_4_15
*991 FILLER_4_153
*992 FILLER_4_165
*993 FILLER_4_177
*994 FILLER_4_189
*995 FILLER_4_195
*996 FILLER_4_197
*997 FILLER_4_209
*998 FILLER_4_221
*999 FILLER_4_27
*1000 FILLER_4_29
*1001 FILLER_4_3
*1002 FILLER_4_41
*1003 FILLER_4_53
*1004 FILLER_4_65
*1005 FILLER_4_77
*1006 FILLER_4_83
*1007 FILLER_4_85
*1008 FILLER_4_97
*1009 FILLER_5_105
*1010 FILLER_5_111
*1011 FILLER_5_113
*1012 FILLER_5_125
*1013 FILLER_5_137
*1014 FILLER_5_149
*1015 FILLER_5_15
*1016 FILLER_5_161
*1017 FILLER_5_167
*1018 FILLER_5_169
*1019 FILLER_5_181
*1020 FILLER_5_193
*1021 FILLER_5_205
*1022 FILLER_5_217
*1023 FILLER_5_223
*1024 FILLER_5_225
*1025 FILLER_5_27
*1026 FILLER_5_3
*1027 FILLER_5_39
*1028 FILLER_5_51
*1029 FILLER_5_55
*1030 FILLER_5_57
*1031 FILLER_5_69
*1032 FILLER_5_81
*1033 FILLER_5_93
*1034 FILLER_6_109
*1035 FILLER_6_121
*1036 FILLER_6_133
*1037 FILLER_6_139
*1038 FILLER_6_141
*1039 FILLER_6_15
*1040 FILLER_6_153
*1041 FILLER_6_165
*1042 FILLER_6_177
*1043 FILLER_6_189
*1044 FILLER_6_195
*1045 FILLER_6_197
*1046 FILLER_6_209
*1047 FILLER_6_221
*1048 FILLER_6_27
*1049 FILLER_6_29
*1050 FILLER_6_3
*1051 FILLER_6_41
*1052 FILLER_6_53
*1053 FILLER_6_65
*1054 FILLER_6_77
*1055 FILLER_6_83
*1056 FILLER_6_85
*1057 FILLER_6_97
*1058 FILLER_7_105
*1059 FILLER_7_111
*1060 FILLER_7_113
*1061 FILLER_7_125
*1062 FILLER_7_137
*1063 FILLER_7_149
*1064 FILLER_7_15
*1065 FILLER_7_161
*1066 FILLER_7_167
*1067 FILLER_7_169
*1068 FILLER_7_181
*1069 FILLER_7_193
*1070 FILLER_7_205
*1071 FILLER_7_217
*1072 FILLER_7_223
*1073 FILLER_7_225
*1074 FILLER_7_27
*1075 FILLER_7_3
*1076 FILLER_7_39
*1077 FILLER_7_51
*1078 FILLER_7_55
*1079 FILLER_7_57
*1080 FILLER_7_69
*1081 FILLER_7_81
*1082 FILLER_7_93
*1083 FILLER_8_109
*1084 FILLER_8_121
*1085 FILLER_8_133
*1086 FILLER_8_139
*1087 FILLER_8_141
*1088 FILLER_8_15
*1089 FILLER_8_153
*1090 FILLER_8_159
*1091 FILLER_8_165
*1092 FILLER_8_177
*1093 FILLER_8_189
*1094 FILLER_8_195
*1095 FILLER_8_197
*1096 FILLER_8_209
*1097 FILLER_8_221
*1098 FILLER_8_27
*1099 FILLER_8_29
*1100 FILLER_8_3
*1101 FILLER_8_41
*1102 FILLER_8_53
*1103 FILLER_8_65
*1104 FILLER_8_77
*1105 FILLER_8_83
*1106 FILLER_8_85
*1107 FILLER_8_97
*1108 FILLER_9_105
*1109 FILLER_9_111
*1110 FILLER_9_113
*1111 FILLER_9_121
*1112 FILLER_9_133
*1113 FILLER_9_144
*1114 FILLER_9_15
*1115 FILLER_9_156
*1116 FILLER_9_165
*1117 FILLER_9_169
*1118 FILLER_9_173
*1119 FILLER_9_180
*1120 FILLER_9_194
*1121 FILLER_9_206
*1122 FILLER_9_218
*1123 FILLER_9_225
*1124 FILLER_9_27
*1125 FILLER_9_3
*1126 FILLER_9_37
*1127 FILLER_9_49
*1128 FILLER_9_55
*1129 FILLER_9_57
*1130 FILLER_9_64
*1131 FILLER_9_72
*1132 FILLER_9_79
*1133 FILLER_9_91
*1134 FILLER_9_97
*1135 PHY_0
*1136 PHY_1
*1137 PHY_10
*1138 PHY_11
*1139 PHY_12
*1140 PHY_13
*1141 PHY_14
*1142 PHY_15
*1143 PHY_16
*1144 PHY_17
*1145 PHY_18
*1146 PHY_19
*1147 PHY_2
*1148 PHY_20
*1149 PHY_21
*1150 PHY_22
*1151 PHY_23
*1152 PHY_24
*1153 PHY_25
*1154 PHY_26
*1155 PHY_27
*1156 PHY_28
*1157 PHY_29
*1158 PHY_3
*1159 PHY_30
*1160 PHY_31
*1161 PHY_32
*1162 PHY_33
*1163 PHY_34
*1164 PHY_35
*1165 PHY_36
*1166 PHY_37
*1167 PHY_38
*1168 PHY_39
*1169 PHY_4
*1170 PHY_40
*1171 PHY_41
*1172 PHY_42
*1173 PHY_43
*1174 PHY_44
*1175 PHY_45
*1176 PHY_46
*1177 PHY_47
*1178 PHY_48
*1179 PHY_49
*1180 PHY_5
*1181 PHY_50
*1182 PHY_51
*1183 PHY_52
*1184 PHY_53
*1185 PHY_54
*1186 PHY_55
*1187 PHY_56
*1188 PHY_57
*1189 PHY_58
*1190 PHY_59
*1191 PHY_6
*1192 PHY_60
*1193 PHY_61
*1194 PHY_62
*1195 PHY_63
*1196 PHY_64
*1197 PHY_65
*1198 PHY_66
*1199 PHY_67
*1200 PHY_68
*1201 PHY_69
*1202 PHY_7
*1203 PHY_70
*1204 PHY_71
*1205 PHY_8
*1206 PHY_9
*1207 TAP_100
*1208 TAP_101
*1209 TAP_102
*1210 TAP_103
*1211 TAP_104
*1212 TAP_105
*1213 TAP_106
*1214 TAP_107
*1215 TAP_108
*1216 TAP_109
*1217 TAP_110
*1218 TAP_111
*1219 TAP_112
*1220 TAP_113
*1221 TAP_114
*1222 TAP_115
*1223 TAP_116
*1224 TAP_117
*1225 TAP_118
*1226 TAP_119
*1227 TAP_120
*1228 TAP_121
*1229 TAP_122
*1230 TAP_123
*1231 TAP_124
*1232 TAP_125
*1233 TAP_126
*1234 TAP_127
*1235 TAP_128
*1236 TAP_129
*1237 TAP_130
*1238 TAP_131
*1239 TAP_132
*1240 TAP_133
*1241 TAP_134
*1242 TAP_135
*1243 TAP_136
*1244 TAP_137
*1245 TAP_138
*1246 TAP_139
*1247 TAP_140
*1248 TAP_141
*1249 TAP_142
*1250 TAP_143
*1251 TAP_144
*1252 TAP_145
*1253 TAP_146
*1254 TAP_147
*1255 TAP_148
*1256 TAP_149
*1257 TAP_150
*1258 TAP_151
*1259 TAP_152
*1260 TAP_153
*1261 TAP_154
*1262 TAP_155
*1263 TAP_156
*1264 TAP_157
*1265 TAP_158
*1266 TAP_159
*1267 TAP_160
*1268 TAP_161
*1269 TAP_162
*1270 TAP_163
*1271 TAP_164
*1272 TAP_165
*1273 TAP_166
*1274 TAP_167
*1275 TAP_168
*1276 TAP_169
*1277 TAP_170
*1278 TAP_171
*1279 TAP_172
*1280 TAP_173
*1281 TAP_174
*1282 TAP_175
*1283 TAP_176
*1284 TAP_177
*1285 TAP_178
*1286 TAP_179
*1287 TAP_180
*1288 TAP_181
*1289 TAP_182
*1290 TAP_183
*1291 TAP_184
*1292 TAP_185
*1293 TAP_186
*1294 TAP_187
*1295 TAP_188
*1296 TAP_189
*1297 TAP_190
*1298 TAP_191
*1299 TAP_192
*1300 TAP_193
*1301 TAP_194
*1302 TAP_195
*1303 TAP_196
*1304 TAP_197
*1305 TAP_198
*1306 TAP_199
*1307 TAP_200
*1308 TAP_201
*1309 TAP_202
*1310 TAP_203
*1311 TAP_204
*1312 TAP_205
*1313 TAP_206
*1314 TAP_207
*1315 TAP_208
*1316 TAP_209
*1317 TAP_210
*1318 TAP_211
*1319 TAP_212
*1320 TAP_213
*1321 TAP_214
*1322 TAP_215
*1323 TAP_216
*1324 TAP_217
*1325 TAP_218
*1326 TAP_219
*1327 TAP_220
*1328 TAP_221
*1329 TAP_222
*1330 TAP_223
*1331 TAP_72
*1332 TAP_73
*1333 TAP_74
*1334 TAP_75
*1335 TAP_76
*1336 TAP_77
*1337 TAP_78
*1338 TAP_79
*1339 TAP_80
*1340 TAP_81
*1341 TAP_82
*1342 TAP_83
*1343 TAP_84
*1344 TAP_85
*1345 TAP_86
*1346 TAP_87
*1347 TAP_88
*1348 TAP_89
*1349 TAP_90
*1350 TAP_91
*1351 TAP_92
*1352 TAP_93
*1353 TAP_94
*1354 TAP_95
*1355 TAP_96
*1356 TAP_97
*1357 TAP_98
*1358 TAP_99
*1359 _181_
*1360 _182_
*1361 _183_
*1362 _184_
*1363 _185_
*1364 _186_
*1365 _187_
*1366 _188_
*1367 _189_
*1368 _190_
*1369 _191_
*1370 _192_
*1371 _193_
*1372 _194_
*1373 _195_
*1374 _196_
*1375 _197_
*1376 _198_
*1377 _199_
*1378 _200_
*1379 _201_
*1380 _202_
*1381 _203_
*1382 _204_
*1383 _205_
*1384 _206_
*1385 _207_
*1386 _208_
*1387 _209_
*1388 _210_
*1389 _211_
*1390 _212_
*1391 _213_
*1392 _214_
*1393 _215_
*1394 _216_
*1395 _217_
*1396 _218_
*1397 _219_
*1398 _220_
*1399 _221_
*1400 _222_
*1401 _223_
*1402 _224_
*1403 _225_
*1404 _226_
*1405 _227_
*1406 _228_
*1407 _229_
*1408 _230_
*1409 _231_
*1410 _232_
*1411 _233_
*1412 _234_
*1413 _235_
*1414 _236_
*1415 _237_
*1416 _238_
*1417 _239_
*1418 _240_
*1419 _241_
*1420 _242_
*1421 _243_
*1422 _244_
*1423 _245_
*1424 _246_
*1425 _247_
*1426 _248_
*1427 _249_
*1428 _250_
*1429 _251_
*1430 _252_
*1431 _253_
*1432 _254_
*1433 _255_
*1434 _256_
*1435 _257_
*1436 _258_
*1437 _259_
*1438 _260_
*1439 _261_
*1440 _262_
*1441 _263_
*1442 _264_
*1443 _265_
*1444 _266_
*1445 _267_
*1446 _268_
*1447 _269_
*1448 _270_
*1449 _271_
*1450 _272_
*1451 _273_
*1452 _274_
*1453 _275_
*1454 _276_
*1455 _277_
*1456 _278_
*1457 _279_
*1458 _280_
*1459 _281_
*1460 _282_
*1461 _283_
*1462 _284_
*1463 _285_
*1464 _286_
*1465 _287_
*1466 _288_
*1467 _289_
*1468 _290_
*1469 _291_
*1470 _292_
*1471 _293_
*1472 _294_
*1473 _295_
*1474 _296_
*1475 _297_
*1476 _298_
*1477 _299_
*1478 _300_
*1479 _301_
*1480 _302_
*1481 _303_
*1482 _304_
*1483 _305_
*1484 _306_
*1485 _307_
*1486 _308_
*1487 _309_
*1488 _310_
*1489 _311_
*1490 _312_
*1491 _313_
*1492 _314_
*1493 _315_
*1494 _316_
*1495 _317_
*1496 _318_
*1497 _319_
*1498 _320_
*1499 _321_
*1500 _322_
*1501 _323_
*1502 _324_
*1503 _325_
*1504 _326_
*1505 _327_
*1506 _328_
*1507 _329_
*1508 _330_
*1509 _331_
*1510 _332_
*1511 _333_
*1512 _334_
*1513 _335_
*1514 _336_
*1515 _337_
*1516 _338_
*1517 _339_
*1518 _340_
*1519 _341_
*1520 _342_
*1521 _343_
*1522 _344_
*1523 _345_
*1524 _346_
*1525 _347_
*1526 _348_
*1527 _349_
*1528 _350_
*1529 _351_
*1530 _352_
*1531 _353_
*1532 _354_
*1533 _355_
*1534 _356_
*1535 _357_
*1536 _358_
*1537 _359_
*1538 _360_
*1539 _361_
*1540 _362_
*1541 _363_
*1542 _364_
*1543 _365_
*1544 _366_
*1545 _367_
*1546 _368_
*1547 _369_
*1548 _370_
*1549 _371_
*1550 _372_
*1551 _373_
*1552 _374_
*1553 _375_
*1554 _376_
*1555 _377_
*1556 _378_
*1557 _379_
*1558 _380_
*1559 _381_
*1560 _382_
*1561 _383_
*1562 _384_
*1563 _385_
*1564 _386_
*1565 _387_
*1566 _388_
*1567 _389_
*1568 _390_
*1569 _391_
*1570 _392_
*1571 _393_
*1572 _394_
*1573 _395_
*1574 _396_
*1575 _397_
*1576 _398_
*1577 _399_
*1578 _400_
*1579 _401_
*1580 _402_
*1581 _403_
*1582 _404_
*1583 _405_
*1584 _406_
*1585 _407_
*1586 _408_
*1587 _409_
*1588 _410_
*1589 _411_
*1590 _412_
*1591 _413_
*1592 _414_
*1593 _415_
*1594 clkbuf_0_clk
*1595 clkbuf_2_0__f_clk
*1596 clkbuf_2_1__f_clk
*1597 clkbuf_2_2__f_clk
*1598 clkbuf_2_3__f_clk
*1599 fanout11
*1600 fanout12
*1601 fanout13
*1602 fanout14
*1603 fanout15
*1604 fanout16
*1605 fanout17
*1606 fanout18
*1607 fanout19
*1608 fanout20
*1609 input1
*1610 input2
*1611 output10
*1612 output3
*1613 output4
*1614 output5
*1615 output6
*1616 output7
*1617 output8
*1618 output9

*PORTS
clk I
io_in I
io_out[0] O
io_out[1] O
io_out[2] O
io_out[3] O
io_out[4] O
io_out[5] O
io_out[6] O
io_out[7] O
rst I

*D_NET *1 0.00478721
*CONN
*P clk I
*I *1594:A I *D sky130_fd_sc_hd__clkbuf_16
*CAP
1 clk 0.00155779
2 *1594:A 0.000835811
3 *1:10 0.0023936
4 *1594:A *1538:A 0
5 *1594:A *1538:B 0
6 *1594:A *18:8 0
7 *1594:A *128:7 0
8 *1594:A *249:18 0
9 *1594:A *261:6 0
10 *1594:A *262:6 0
11 *1:10 *1527:B 0
12 *1:10 *1528:B 0
13 *1:10 *1586:CLK 0
14 *1:10 *54:13 0
15 *1:10 *60:9 0
*RES
1 clk *1:10 44.8571 
2 *1:10 *1594:A 47.8536 
*END

*D_NET *2 0.000807858
*CONN
*P io_in I
*I *1609:A I *D sky130_fd_sc_hd__clkbuf_2
*CAP
1 io_in 0.000403929
2 *1609:A 0.000403929
*RES
1 io_in *1609:A 28.2821 
*END

*D_NET *3 0.00068272
*CONN
*P io_out[0] O
*I *1612:X O *D sky130_fd_sc_hd__buf_4
*CAP
1 io_out[0] 0.00034136
2 *1612:X 0.00034136
*RES
1 *1612:X io_out[0] 26.8536 
*END

*D_NET *4 0.00068272
*CONN
*P io_out[1] O
*I *1613:X O *D sky130_fd_sc_hd__buf_4
*CAP
1 io_out[1] 0.00034136
2 *1613:X 0.00034136
3 io_out[1] *1612:A 0
*RES
1 *1613:X io_out[1] 26.8536 
*END

*D_NET *5 0.00068272
*CONN
*P io_out[2] O
*I *1614:X O *D sky130_fd_sc_hd__buf_4
*CAP
1 io_out[2] 0.00034136
2 *1614:X 0.00034136
3 io_out[2] *264:17 0
*RES
1 *1614:X io_out[2] 26.8536 
*END

*D_NET *6 0.000722079
*CONN
*P io_out[3] O
*I *1615:X O *D sky130_fd_sc_hd__buf_4
*CAP
1 io_out[3] 0.000361039
2 *1615:X 0.000361039
3 io_out[3] *1615:A 0
4 io_out[3] *1616:A 0
*RES
1 *1615:X io_out[3] 27.2643 
*END

*D_NET *7 0.00102008
*CONN
*P io_out[4] O
*I *1616:X O *D sky130_fd_sc_hd__buf_4
*CAP
1 io_out[4] 0.00051004
2 *1616:X 0.00051004
3 io_out[4] *1616:A 0
4 io_out[4] *264:17 0
*RES
1 *1616:X io_out[4] 30.8 
*END

*D_NET *8 0.000878279
*CONN
*P io_out[5] O
*I *1617:X O *D sky130_fd_sc_hd__buf_4
*CAP
1 io_out[5] 0.000439139
2 *1617:X 0.000439139
3 io_out[5] *1617:A 0
4 io_out[5] *265:17 0
*RES
1 *1617:X io_out[5] 29.1571 
*END

*D_NET *9 0.000722079
*CONN
*P io_out[6] O
*I *1618:X O *D sky130_fd_sc_hd__buf_4
*CAP
1 io_out[6] 0.000361039
2 *1618:X 0.000361039
3 io_out[6] *265:17 0
*RES
1 *1618:X io_out[6] 27.2643 
*END

*D_NET *10 0.00099759
*CONN
*P io_out[7] O
*I *1611:X O *D sky130_fd_sc_hd__buf_4
*CAP
1 io_out[7] 0.000498795
2 *1611:X 0.000498795
*RES
1 *1611:X io_out[7] 30.1393 
*END

*D_NET *11 0.000671974
*CONN
*P rst I
*I *1610:A I *D sky130_fd_sc_hd__clkbuf_2
*CAP
1 rst 0.000335987
2 *1610:A 0.000335987
*RES
1 rst *1610:A 27.05 
*END

*D_NET *14 0.00140109
*CONN
*I *1545:D I *D sky130_fd_sc_hd__dfxtp_1
*I *1434:X O *D sky130_fd_sc_hd__a21bo_1
*CAP
1 *1545:D 0.000700544
2 *1434:X 0.000700544
3 *1545:D *1592:D 0
4 *1545:D *136:7 0
5 *1545:D *259:7 0
*RES
1 *1434:X *1545:D 33.283 
*END

*D_NET *15 0.00288246
*CONN
*I *1546:D I *D sky130_fd_sc_hd__dfxtp_1
*I *1437:Y O *D sky130_fd_sc_hd__nand2_1
*CAP
1 *1546:D 4.107e-05
2 *1437:Y 0.000215262
3 *15:18 0.00122597
4 *15:12 0.00140016
5 *1546:D *1592:D 0
6 *15:12 *1599:A 0
7 *15:12 *65:45 0
8 *15:12 *65:85 0
9 *15:12 *128:34 0
10 *15:12 *136:19 0
11 *15:12 *254:44 0
12 *15:18 *1440:A 0
13 *15:18 *1440:B 0
14 *15:18 *1540:CLK 0
15 *15:18 *18:8 0
16 *15:18 *128:7 0
17 *15:18 *249:18 0
*RES
1 *1437:Y *15:12 41.2643 
2 *15:12 *15:18 43.8393 
3 *15:18 *1546:D 19.1571 
*END

*D_NET *16 0.00212409
*CONN
*I *1547:D I *D sky130_fd_sc_hd__dfxtp_1
*I *1438:X O *D sky130_fd_sc_hd__o21ba_1
*CAP
1 *1547:D 0.00106205
2 *1438:X 0.00106205
3 *1547:D *1548:CLK 0
4 *1547:D *1548:D 0
5 *1547:D *1599:A 0
6 *1547:D *249:18 0
7 *1547:D *264:10 0
*RES
1 *1438:X *1547:D 40.7652 
*END

*D_NET *17 0.00118818
*CONN
*I *1548:D I *D sky130_fd_sc_hd__dfxtp_1
*I *1439:Y O *D sky130_fd_sc_hd__o21ai_1
*CAP
1 *1548:D 0.000594088
2 *1439:Y 0.000594088
3 *1548:D *1439:A1 0
4 *1548:D *1439:B1 0
5 *1548:D *1548:CLK 0
6 *1548:D *259:8 0
7 *1547:D *1548:D 0
*RES
1 *1439:Y *1548:D 49.3857 
*END

*D_NET *18 0.00288064
*CONN
*I *1549:D I *D sky130_fd_sc_hd__dfxtp_1
*I *1440:Y O *D sky130_fd_sc_hd__nand2_1
*CAP
1 *1549:D 4.107e-05
2 *1440:Y 0.00139925
3 *18:8 0.00144032
4 *18:8 *1549:CLK 0