*SPEF "ieee 1481-1999"
*DESIGN "tt2_tholin_namebadge"
*DATE "11:11:11 Fri 11 11, 1111"
*VENDOR "OpenRCX"
*PROGRAM "Parallel Extraction"
*VERSION "1.0"
*DESIGN_FLOW "NAME_SCOPE LOCAL" "PIN_CAP NONE"
*DIVIDER /
*DELIMITER :
*BUS_DELIMITER []
*T_UNIT 1 NS
*C_UNIT 1 PF
*R_UNIT 1 OHM
*L_UNIT 1 HENRY

*NAME_MAP
*1 clk
*2 io_in[0]
*3 io_in[1]
*4 io_in[2]
*5 net13
*6 net23
*7 net24
*8 net25
*9 net26
*10 net27
*11 net28
*12 net29
*13 net30
*14 net31
*15 net32
*16 net14
*17 net33
*18 net34
*19 net35
*20 net36
*21 net37
*22 net38
*23 net39
*24 net15
*25 net16
*26 net17
*27 net18
*28 net19
*29 net20
*30 net21
*31 net22
*32 io_out[0]
*33 io_out[1]
*34 io_out[2]
*35 io_out[3]
*36 io_out[4]
*37 io_out[5]
*38 io_out[6]
*39 io_out[7]
*40 rst
*43 _000_
*44 _001_
*45 _002_
*46 _003_
*47 _004_
*48 _005_
*49 _006_
*50 _007_
*51 _008_
*52 _009_
*53 _010_
*54 _011_
*55 _012_
*56 _013_
*57 _014_
*58 _015_
*59 _016_
*60 _017_
*61 _018_
*62 _019_
*63 _020_
*64 _021_
*65 _022_
*66 _023_
*67 _024_
*68 _025_
*69 _026_
*70 _027_
*71 _028_
*72 _029_
*73 _030_
*74 _031_
*75 _032_
*76 _033_
*77 _034_
*78 _035_
*79 _036_
*80 _037_
*81 _038_
*82 _039_
*83 _040_
*84 _041_
*85 _042_
*86 _043_
*87 _044_
*88 _045_
*89 _046_
*90 _047_
*91 _048_
*92 _049_
*93 _050_
*94 _051_
*95 _052_
*96 _053_
*97 _054_
*98 _055_
*99 _056_
*100 _057_
*101 _058_
*102 _059_
*103 _060_
*104 _061_
*105 _062_
*106 _063_
*107 _064_
*108 _065_
*109 _066_
*110 _067_
*111 _068_
*112 _069_
*113 _070_
*114 _071_
*115 _072_
*116 _073_
*117 _074_
*118 _075_
*119 _076_
*120 _077_
*121 _078_
*122 _079_
*123 _080_
*124 _081_
*125 _082_
*126 _083_
*127 _084_
*128 _085_
*129 _086_
*130 _087_
*131 _088_
*132 _089_
*133 _090_
*134 _091_
*135 _092_
*136 _093_
*137 _094_
*138 _095_
*139 _096_
*140 _097_
*141 _098_
*142 _099_
*143 _100_
*144 _101_
*145 _102_
*146 _103_
*147 _104_
*148 _105_
*149 _106_
*150 _107_
*151 _108_
*152 _109_
*153 _110_
*154 _111_
*155 _112_
*156 _113_
*157 _114_
*158 _115_
*159 _116_
*160 _117_
*161 _118_
*162 _119_
*163 _120_
*164 _121_
*165 _122_
*166 _123_
*167 _124_
*168 _125_
*169 _126_
*170 _127_
*171 _128_
*172 _129_
*173 _130_
*174 _131_
*175 _132_
*176 _133_
*177 _134_
*178 _135_
*179 _136_
*180 _137_
*181 _138_
*182 _139_
*183 _140_
*184 _141_
*185 _142_
*186 _143_
*187 _144_
*188 _145_
*189 _146_
*190 _147_
*191 _148_
*192 _149_
*193 _150_
*194 _151_
*195 _152_
*196 _153_
*197 _154_
*198 _155_
*199 _156_
*200 _157_
*201 _158_
*202 _159_
*203 _160_
*204 _161_
*205 _162_
*206 _163_
*207 _164_
*208 _165_
*209 _166_
*210 _167_
*211 _168_
*212 _169_
*213 _170_
*214 _171_
*215 _172_
*216 _173_
*217 _174_
*218 _175_
*219 _176_
*220 _177_
*221 _178_
*222 _179_
*223 _180_
*224 _181_
*225 _182_
*226 _183_
*227 _184_
*228 _185_
*229 _186_
*230 _187_
*231 _188_
*232 _189_
*233 _190_
*234 _191_
*235 _192_
*236 _193_
*237 _194_
*238 _195_
*239 _196_
*240 _197_
*241 _198_
*242 _199_
*243 _200_
*244 _201_
*245 _202_
*246 _203_
*247 _204_
*248 _205_
*249 _206_
*250 _207_
*251 _208_
*252 _209_
*253 _210_
*254 _211_
*255 _212_
*256 _213_
*257 _214_
*258 _215_
*259 _216_
*260 _217_
*261 _218_
*262 _219_
*263 _220_
*264 _221_
*265 _222_
*266 _223_
*267 _224_
*268 _225_
*269 _226_
*270 _227_
*271 _228_
*272 _229_
*273 _230_
*274 _231_
*275 _232_
*276 _233_
*277 _234_
*278 _235_
*279 _236_
*280 _237_
*281 _238_
*282 _239_
*283 _240_
*284 _241_
*285 _242_
*286 _243_
*287 _244_
*288 _245_
*289 _246_
*290 _247_
*291 _248_
*292 _249_
*293 _250_
*294 _251_
*295 _252_
*296 _253_
*297 _254_
*298 _255_
*299 _256_
*300 _257_
*301 _258_
*302 _259_
*303 _260_
*304 _261_
*305 _262_
*306 _263_
*307 _264_
*308 _265_
*309 _266_
*310 _267_
*311 _268_
*312 _269_
*313 _270_
*314 _271_
*315 _272_
*316 _273_
*317 _274_
*318 _275_
*319 _276_
*320 _277_
*321 _278_
*322 _279_
*323 _280_
*324 _281_
*325 _282_
*326 _283_
*327 _284_
*328 _285_
*329 _286_
*330 _287_
*331 _288_
*332 _289_
*333 _290_
*334 _291_
*335 _292_
*336 _293_
*337 _294_
*338 _295_
*339 _296_
*340 _297_
*341 _298_
*342 _299_
*343 _300_
*344 _301_
*345 _302_
*346 _303_
*347 _304_
*348 _305_
*349 _306_
*350 _307_
*351 _308_
*352 _309_
*353 _310_
*354 _311_
*355 _312_
*356 _313_
*357 _314_
*358 _315_
*359 _316_
*360 _317_
*361 _318_
*362 _319_
*363 _320_
*364 _321_
*365 _322_
*366 _323_
*367 _324_
*368 _325_
*369 _326_
*370 _327_
*371 _328_
*372 _329_
*373 _330_
*374 _331_
*375 _332_
*376 _333_
*377 _334_
*378 _335_
*379 _336_
*380 _337_
*381 _338_
*382 _339_
*383 _340_
*384 _341_
*385 _342_
*386 _343_
*387 _344_
*388 _345_
*389 _346_
*390 _347_
*391 _348_
*392 _349_
*393 _350_
*394 _351_
*395 _352_
*396 _353_
*397 _354_
*398 _355_
*399 _356_
*400 _357_
*401 _358_
*402 _359_
*403 _360_
*404 _361_
*405 _362_
*406 _363_
*407 _364_
*408 _365_
*409 _366_
*410 _367_
*411 _368_
*412 _369_
*413 _370_
*414 _371_
*415 _372_
*416 _373_
*417 _374_
*418 _375_
*419 _376_
*420 _377_
*421 _378_
*422 _379_
*423 _380_
*424 _381_
*425 _382_
*426 _383_
*427 _384_
*428 _385_
*429 _386_
*430 _387_
*431 _388_
*432 _389_
*433 _390_
*434 _391_
*435 _392_
*436 _393_
*437 _394_
*438 _395_
*439 _396_
*440 _397_
*441 _398_
*442 _399_
*443 _400_
*444 _401_
*445 _402_
*446 _403_
*447 clknet_0_clk
*448 clknet_2_0__leaf_clk
*449 clknet_2_1__leaf_clk
*450 clknet_2_2__leaf_clk
*451 clknet_2_3__leaf_clk
*452 lcd\.num_state\[0\]
*453 lcd\.num_state\[1\]
*454 lcd\.rom_addr\[0\]
*455 lcd\.rom_addr\[1\]
*456 lcd\.rom_addr\[3\]
*457 lcd\.rom_addr\[4\]
*458 lcd\.rom_addr\[5\]
*459 lcd\.rom_addr\[6\]
*460 lcd\.round\[0\]
*461 lcd\.round\[1\]
*462 lcd\.s_ROM\[0\]
*463 lcd\.s_ROM\[1\]
*464 lcd\.s_ROM\[2\]
*465 lcd\.s_ROM\[3\]
*466 lcd\.s_ROM\[4\]
*467 lcd\.s_ROM\[5\]
*468 lcd\.s_ROM\[6\]
*469 lcd\.seq\[0\]
*470 lcd\.seq\[1\]
*471 lcd\.seq\[2\]
*472 lcd\.seq\[3\]
*473 lcd\.seq\[4\]
*474 lcd\.seq\[5\]
*475 lcd\.seq\[6\]
*476 lcd\.seq\[7\]
*477 lcd\.toggle
*478 net1
*479 net10
*480 net11
*481 net12
*482 net2
*483 net3
*484 net4
*485 net5
*486 net6
*487 net7
*488 net8
*489 net9
*490 ANTENNA__407__A2
*491 ANTENNA__411__A
*492 ANTENNA__415__B
*493 ANTENNA__417__A
*494 ANTENNA__419__A
*495 ANTENNA__421__A
*496 ANTENNA__423__B_N
*497 ANTENNA__425__B
*498 ANTENNA__429__B
*499 ANTENNA__433__B
*500 ANTENNA__437__B
*501 ANTENNA__440__C
*502 ANTENNA__445__A
*503 ANTENNA__447__A_N
*504 ANTENNA__454__B1
*505 ANTENNA__457__B1
*506 ANTENNA__464__B1
*507 ANTENNA__466__B1
*508 ANTENNA__470__B1
*509 ANTENNA__473__A
*510 ANTENNA__474__A
*511 ANTENNA__475__A
*512 ANTENNA__481__A
*513 ANTENNA__486__A
*514 ANTENNA__487__A
*515 ANTENNA__493__A
*516 ANTENNA__494__A
*517 ANTENNA__495__A1
*518 ANTENNA__496__B1
*519 ANTENNA__499__B1
*520 ANTENNA__509__A1
*521 ANTENNA__519__A2
*522 ANTENNA__522__A
*523 ANTENNA__530__A
*524 ANTENNA__539__A2
*525 ANTENNA__546__B
*526 ANTENNA__557__A2
*527 ANTENNA__558__B
*528 ANTENNA__565__S
*529 ANTENNA__568__A
*530 ANTENNA__573__B1
*531 ANTENNA__578__A2
*532 ANTENNA__580__C1
*533 ANTENNA__585__A1
*534 ANTENNA__591__C1
*535 ANTENNA__594__A2
*536 ANTENNA__597__A1
*537 ANTENNA__597__C1
*538 ANTENNA__600__B
*539 ANTENNA__601__A2
*540 ANTENNA__602__C1
*541 ANTENNA__604__A1
*542 ANTENNA__605__A2
*543 ANTENNA__607__B
*544 ANTENNA__609__B
*545 ANTENNA__611__A1
*546 ANTENNA__616__A1
*547 ANTENNA__616__C1
*548 ANTENNA__618__A
*549 ANTENNA__621__A2
*550 ANTENNA__622__A1
*551 ANTENNA__624__A1
*552 ANTENNA__625__A1
*553 ANTENNA__626__B1
*554 ANTENNA__627__A1
*555 ANTENNA__627__C1
*556 ANTENNA__629__A
*557 ANTENNA__633__B1
*558 ANTENNA__637__A
*559 ANTENNA__641__A1
*560 ANTENNA__642__D1
*561 ANTENNA__643__A
*562 ANTENNA__644__A1
*563 ANTENNA__646__A1
*564 ANTENNA__648__C1
*565 ANTENNA__651__B1
*566 ANTENNA__653__A1
*567 ANTENNA__659__A1
*568 ANTENNA__664__A1
*569 ANTENNA__670__A1
*570 ANTENNA__674__A1
*571 ANTENNA__675__A1
*572 ANTENNA__678__A1
*573 ANTENNA__679__S
*574 ANTENNA__687__S
*575 ANTENNA__688__A
*576 ANTENNA__701__A
*577 ANTENNA__702__A1
*578 ANTENNA__718__A
*579 ANTENNA__719__B2
*580 ANTENNA__721__S
*581 ANTENNA__734__A1
*582 ANTENNA__736__S
*583 ANTENNA__748__B
*584 ANTENNA__752__B2
*585 ANTENNA__753__A
*586 ANTENNA__760__A1
*587 ANTENNA__769__B2
*588 ANTENNA__774__B1
*589 ANTENNA__781__A
*590 ANTENNA__798__A1
*591 ANTENNA__807__B2
*592 ANTENNA__816__D
*593 ANTENNA__818__D
*594 ANTENNA__819__D
*595 ANTENNA__821__D
*596 ANTENNA__822__D
*597 ANTENNA__827__D
*598 ANTENNA__868__A
*599 ANTENNA_clkbuf_0_clk_A
*600 ANTENNA_input1_A
*601 ANTENNA_input2_A
*602 ANTENNA_input3_A
*603 ANTENNA_input4_A
*604 ANTENNA_output10_A
*605 ANTENNA_output11_A
*606 ANTENNA_output12_A
*607 ANTENNA_output5_A
*608 ANTENNA_output8_A
*609 ANTENNA_output9_A
*610 FILLER_0_103
*611 FILLER_0_110
*612 FILLER_0_113
*613 FILLER_0_118
*614 FILLER_0_127
*615 FILLER_0_13
*616 FILLER_0_134
*617 FILLER_0_141
*618 FILLER_0_146
*619 FILLER_0_153
*620 FILLER_0_160
*621 FILLER_0_166
*622 FILLER_0_169
*623 FILLER_0_174
*624 FILLER_0_18
*625 FILLER_0_181
*626 FILLER_0_188
*627 FILLER_0_194
*628 FILLER_0_197
*629 FILLER_0_202
*630 FILLER_0_209
*631 FILLER_0_216
*632 FILLER_0_225
*633 FILLER_0_230
*634 FILLER_0_237
*635 FILLER_0_243
*636 FILLER_0_26
*637 FILLER_0_29
*638 FILLER_0_3
*639 FILLER_0_35
*640 FILLER_0_43
*641 FILLER_0_51
*642 FILLER_0_55
*643 FILLER_0_57
*644 FILLER_0_63
*645 FILLER_0_67
*646 FILLER_0_74
*647 FILLER_0_78
*648 FILLER_0_82
*649 FILLER_0_85
*650 FILLER_0_9
*651 FILLER_0_92
*652 FILLER_10_100
*653 FILLER_10_108
*654 FILLER_10_121
*655 FILLER_10_127
*656 FILLER_10_135
*657 FILLER_10_139
*658 FILLER_10_141
*659 FILLER_10_155
*660 FILLER_10_166
*661 FILLER_10_174
*662 FILLER_10_18
*663 FILLER_10_180
*664 FILLER_10_188
*665 FILLER_10_194
*666 FILLER_10_197
*667 FILLER_10_204
*668 FILLER_10_215
*669 FILLER_10_225
*670 FILLER_10_231
*671 FILLER_10_237
*672 FILLER_10_243
*673 FILLER_10_26
*674 FILLER_10_29
*675 FILLER_10_3
*676 FILLER_10_35
*677 FILLER_10_46
*678 FILLER_10_60
*679 FILLER_10_73
*680 FILLER_10_8
*681 FILLER_10_80
*682 FILLER_10_85
*683 FILLER_10_94
*684 FILLER_11_105
*685 FILLER_11_11
*686 FILLER_11_111
*687 FILLER_11_113
*688 FILLER_11_117
*689 FILLER_11_129
*690 FILLER_11_138
*691 FILLER_11_145
*692 FILLER_11_156
*693 FILLER_11_160
*694 FILLER_11_166
*695 FILLER_11_169
*696 FILLER_11_179
*697 FILLER_11_190
*698 FILLER_11_198
*699 FILLER_11_207
*700 FILLER_11_21
*701 FILLER_11_218
*702 FILLER_11_225
*703 FILLER_11_233
*704 FILLER_11_241
*705 FILLER_11_27
*706 FILLER_11_3
*707 FILLER_11_35
*708 FILLER_11_49
*709 FILLER_11_55
*710 FILLER_11_57
*711 FILLER_11_63
*712 FILLER_11_67
*713 FILLER_11_76
*714 FILLER_11_83
*715 FILLER_11_96
*716 FILLER_12_104
*717 FILLER_12_117
*718 FILLER_12_127
*719 FILLER_12_13
*720 FILLER_12_138
*721 FILLER_12_141
*722 FILLER_12_150
*723 FILLER_12_162
*724 FILLER_12_173
*725 FILLER_12_185
*726 FILLER_12_194
*727 FILLER_12_197
*728 FILLER_12_201
*729 FILLER_12_206
*730 FILLER_12_217
*731 FILLER_12_227
*732 FILLER_12_237
*733 FILLER_12_243
*734 FILLER_12_26
*735 FILLER_12_29
*736 FILLER_12_3
*737 FILLER_12_35
*738 FILLER_12_41
*739 FILLER_12_51
*740 FILLER_12_60
*741 FILLER_12_68
*742 FILLER_12_7
*743 FILLER_12_82
*744 FILLER_12_85
*745 FILLER_12_95
*746 FILLER_13_10
*747 FILLER_13_103
*748 FILLER_13_107
*749 FILLER_13_110
*750 FILLER_13_113
*751 FILLER_13_120
*752 FILLER_13_132
*753 FILLER_13_136
*754 FILLER_13_140
*755 FILLER_13_152
*756 FILLER_13_164
*757 FILLER_13_169
*758 FILLER_13_173
*759 FILLER_13_177
*760 FILLER_13_186
*761 FILLER_13_19
*762 FILLER_13_192
*763 FILLER_13_203
*764 FILLER_13_215
*765 FILLER_13_221
*766 FILLER_13_225
*767 FILLER_13_231
*768 FILLER_13_239
*769 FILLER_13_243
*770 FILLER_13_29
*771 FILLER_13_3
*772 FILLER_13_39
*773 FILLER_13_45
*774 FILLER_13_54
*775 FILLER_13_57
*776 FILLER_13_68
*777 FILLER_13_7
*778 FILLER_13_74
*779 FILLER_13_80
*780 FILLER_13_86
*781 FILLER_13_94
*782 FILLER_14_101
*783 FILLER_14_108
*784 FILLER_14_119
*785 FILLER_14_130
*786 FILLER_14_138
*787 FILLER_14_141
*788 FILLER_14_148
*789 FILLER_14_154
*790 FILLER_14_163
*791 FILLER_14_169
*792 FILLER_14_173
*793 FILLER_14_181
*794 FILLER_14_19
*795 FILLER_14_193
*796 FILLER_14_197
*797 FILLER_14_202
*798 FILLER_14_210
*799 FILLER_14_216
*800 FILLER_14_222
*801 FILLER_14_228
*802 FILLER_14_23
*803 FILLER_14_234
*804 FILLER_14_240
*805 FILLER_14_26
*806 FILLER_14_29
*807 FILLER_14_3
*808 FILLER_14_37
*809 FILLER_14_47
*810 FILLER_14_56
*811 FILLER_14_60
*812 FILLER_14_65
*813 FILLER_14_71
*814 FILLER_14_8
*815 FILLER_14_80
*816 FILLER_14_85
*817 FILLER_14_94
*818 FILLER_14_98
*819 FILLER_15_105
*820 FILLER_15_110
*821 FILLER_15_113
*822 FILLER_15_12
*823 FILLER_15_122
*824 FILLER_15_135
*825 FILLER_15_141
*826 FILLER_15_149
*827 FILLER_15_153
*828 FILLER_15_159
*829 FILLER_15_166
*830 FILLER_15_169
*831 FILLER_15_173
*832 FILLER_15_182
*833 FILLER_15_186
*834 FILLER_15_194
*835 FILLER_15_205
*836 FILLER_15_216
*837 FILLER_15_222
*838 FILLER_15_225
*839 FILLER_15_229
*840 FILLER_15_24
*841 FILLER_15_241
*842 FILLER_15_28
*843 FILLER_15_3
*844 FILLER_15_35
*845 FILLER_15_43
*846 FILLER_15_50
*847 FILLER_15_57
*848 FILLER_15_64
*849 FILLER_15_72
*850 FILLER_15_76
*851 FILLER_15_88
*852 FILLER_15_99
*853 FILLER_16_101
*854 FILLER_16_127
*855 FILLER_16_135
*856 FILLER_16_139
*857 FILLER_16_141
*858 FILLER_16_151
*859 FILLER_16_158
*860 FILLER_16_168
*861 FILLER_16_17
*862 FILLER_16_176
*863 FILLER_16_184
*864 FILLER_16_194
*865 FILLER_16_197
*866 FILLER_16_205
*867 FILLER_16_217
*868 FILLER_16_226
*869 FILLER_16_233
*870 FILLER_16_241
*871 FILLER_16_26
*872 FILLER_16_29
*873 FILLER_16_3
*874 FILLER_16_34
*875 FILLER_16_47
*876 FILLER_16_57
*877 FILLER_16_7
*878 FILLER_16_71
*879 FILLER_16_82
*880 FILLER_16_85
*881 FILLER_16_94
*882 FILLER_17_102
*883 FILLER_17_110
*884 FILLER_17_113
*885 FILLER_17_122
*886 FILLER_17_13
*887 FILLER_17_132
*888 FILLER_17_141
*889 FILLER_17_150
*890 FILLER_17_154
*891 FILLER_17_164
*892 FILLER_17_169
*893 FILLER_17_178
*894 FILLER_17_184
*895 FILLER_17_195
*896 FILLER_17_201
*897 FILLER_17_205
*898 FILLER_17_21
*899 FILLER_17_214
*900 FILLER_17_222
*901 FILLER_17_225
*902 FILLER_17_233
*903 FILLER_17_239
*904 FILLER_17_243
*905 FILLER_17_28
*906 FILLER_17_3
*907 FILLER_17_34
*908 FILLER_17_41
*909 FILLER_17_54
*910 FILLER_17_57
*911 FILLER_17_67
*912 FILLER_17_73
*913 FILLER_17_81
*914 FILLER_17_9
*915 FILLER_17_94
*916 FILLER_18_101
*917 FILLER_18_109
*918 FILLER_18_112
*919 FILLER_18_119
*920 FILLER_18_13
*921 FILLER_18_130
*922 FILLER_18_136
*923 FILLER_18_141
*924 FILLER_18_151
*925 FILLER_18_157
*926 FILLER_18_161
*927 FILLER_18_171
*928 FILLER_18_175
*929 FILLER_18_182
*930 FILLER_18_194
*931 FILLER_18_197
*932 FILLER_18_208
*933 FILLER_18_220
*934 FILLER_18_227
*935 FILLER_18_23
*936 FILLER_18_233
*937 FILLER_18_241
*938 FILLER_18_27
*939 FILLER_18_29
*940 FILLER_18_3
*941 FILLER_18_38
*942 FILLER_18_51
*943 FILLER_18_63
*944 FILLER_18_75
*945 FILLER_18_79
*946 FILLER_18_82
*947 FILLER_18_85
*948 FILLER_18_95
*949 FILLER_19_106
*950 FILLER_19_113
*951 FILLER_19_121
*952 FILLER_19_145
*953 FILLER_19_156
*954 FILLER_19_166
*955 FILLER_19_169
*956 FILLER_19_179
*957 FILLER_19_185
*958 FILLER_19_192
*959 FILLER_19_20
*960 FILLER_19_201
*961 FILLER_19_216
*962 FILLER_19_222
*963 FILLER_19_225
*964 FILLER_19_229
*965 FILLER_19_241
*966 FILLER_19_3
*967 FILLER_19_33
*968 FILLER_19_39
*969 FILLER_19_49
*970 FILLER_19_55
*971 FILLER_19_57
*972 FILLER_19_66
*973 FILLER_19_74
*974 FILLER_19_84
*975 FILLER_19_9
*976 FILLER_19_95
*977 FILLER_1_103
*978 FILLER_1_110
*979 FILLER_1_113
*980 FILLER_1_120
*981 FILLER_1_127
*982 FILLER_1_134
*983 FILLER_1_140
*984 FILLER_1_146
*985 FILLER_1_152
*986 FILLER_1_158
*987 FILLER_1_16
*988 FILLER_1_162
*989 FILLER_1_169
*990 FILLER_1_173
*991 FILLER_1_179
*992 FILLER_1_190
*993 FILLER_1_202
*994 FILLER_1_214
*995 FILLER_1_218
*996 FILLER_1_225
*997 FILLER_1_233
*998 FILLER_1_239
*999 FILLER_1_243
*1000 FILLER_1_27
*1001 FILLER_1_3
*1002 FILLER_1_34
*1003 FILLER_1_41
*1004 FILLER_1_51
*1005 FILLER_1_55
*1006 FILLER_1_57
*1007 FILLER_1_61
*1008 FILLER_1_73
*1009 FILLER_1_8
*1010 FILLER_1_83
*1011 FILLER_1_92
*1012 FILLER_20_104
*1013 FILLER_20_11
*1014 FILLER_20_110
*1015 FILLER_20_117
*1016 FILLER_20_125
*1017 FILLER_20_132
*1018 FILLER_20_141
*1019 FILLER_20_151
*1020 FILLER_20_159
*1021 FILLER_20_166
*1022 FILLER_20_173
*1023 FILLER_20_187
*1024 FILLER_20_194
*1025 FILLER_20_197
*1026 FILLER_20_20
*1027 FILLER_20_207
*1028 FILLER_20_216
*1029 FILLER_20_224
*1030 FILLER_20_236
*1031 FILLER_20_26
*1032 FILLER_20_29
*1033 FILLER_20_3
*1034 FILLER_20_33
*1035 FILLER_20_36
*1036 FILLER_20_48
*1037 FILLER_20_63
*1038 FILLER_20_7
*1039 FILLER_20_70
*1040 FILLER_20_77
*1041 FILLER_20_83
*1042 FILLER_20_85
*1043 FILLER_20_98
*1044 FILLER_21_10
*1045 FILLER_21_100
*1046 FILLER_21_110
*1047 FILLER_21_113
*1048 FILLER_21_123
*1049 FILLER_21_129
*1050 FILLER_21_141
*1051 FILLER_21_149
*1052 FILLER_21_160
*1053 FILLER_21_166
*1054 FILLER_21_169
*1055 FILLER_21_177
*1056 FILLER_21_18
*1057 FILLER_21_181
*1058 FILLER_21_189
*1059 FILLER_21_195
*1060 FILLER_21_203
*1061 FILLER_21_210
*1062 FILLER_21_222
*1063 FILLER_21_225
*1064 FILLER_21_237
*1065 FILLER_21_243
*1066 FILLER_21_25
*1067 FILLER_21_3
*1068 FILLER_21_36
*1069 FILLER_21_40
*1070 FILLER_21_48
*1071 FILLER_21_54
*1072 FILLER_21_57
*1073 FILLER_21_67
*1074 FILLER_21_7
*1075 FILLER_21_79
*1076 FILLER_21_96
*1077 FILLER_22_106
*1078 FILLER_22_116
*1079 FILLER_22_12
*1080 FILLER_22_126
*1081 FILLER_22_134
*1082 FILLER_22_138
*1083 FILLER_22_141
*1084 FILLER_22_149
*1085 FILLER_22_155
*1086 FILLER_22_164
*1087 FILLER_22_176
*1088 FILLER_22_184
*1089 FILLER_22_194
*1090 FILLER_22_197
*1091 FILLER_22_202
*1092 FILLER_22_208
*1093 FILLER_22_21
*1094 FILLER_22_213
*1095 FILLER_22_225
*1096 FILLER_22_237
*1097 FILLER_22_243
*1098 FILLER_22_27
*1099 FILLER_22_29
*1100 FILLER_22_3
*1101 FILLER_22_36
*1102 FILLER_22_59
*1103 FILLER_22_68
*1104 FILLER_22_72
*1105 FILLER_22_80
*1106 FILLER_22_85
*1107 FILLER_22_9
*1108 FILLER_22_91
*1109 FILLER_22_98
*1110 FILLER_23_100
*1111 FILLER_23_11
*1112 FILLER_23_110
*1113 FILLER_23_113
*1114 FILLER_23_121
*1115 FILLER_23_128
*1116 FILLER_23_134
*1117 FILLER_23_141
*1118 FILLER_23_148
*1119 FILLER_23_161
*1120 FILLER_23_167
*1121 FILLER_23_169
*1122 FILLER_23_175
*1123 FILLER_23_181
*1124 FILLER_23_193
*1125 FILLER_23_20
*1126 FILLER_23_203
*1127 FILLER_23_215
*1128 FILLER_23_223
*1129 FILLER_23_225
*1130 FILLER_23_237
*1131 FILLER_23_243
*1132 FILLER_23_3
*1133 FILLER_23_31
*1134 FILLER_23_42
*1135 FILLER_23_52
*1136 FILLER_23_57
*1137 FILLER_23_65
*1138 FILLER_23_73
*1139 FILLER_23_81
*1140 FILLER_23_92
*1141 FILLER_24_11
*1142 FILLER_24_110
*1143 FILLER_24_123
*1144 FILLER_24_134
*1145 FILLER_24_141
*1146 FILLER_24_150
*1147 FILLER_24_164
*1148 FILLER_24_177
*1149 FILLER_24_185
*1150 FILLER_24_193
*1151 FILLER_24_197
*1152 FILLER_24_201
*1153 FILLER_24_213
*1154 FILLER_24_225
*1155 FILLER_24_237
*1156 FILLER_24_24
*1157 FILLER_24_243
*1158 FILLER_24_29
*1159 FILLER_24_3
*1160 FILLER_24_47
*1161 FILLER_24_54
*1162 FILLER_24_67
*1163 FILLER_24_80
*1164 FILLER_24_85
*1165 FILLER_24_90
*1166 FILLER_25_101
*1167 FILLER_25_107
*1168 FILLER_25_11
*1169 FILLER_25_110
*1170 FILLER_25_113
*1171 FILLER_25_122
*1172 FILLER_25_134
*1173 FILLER_25_140
*1174 FILLER_25_143
*1175 FILLER_25_15
*1176 FILLER_25_155
*1177 FILLER_25_167
*1178 FILLER_25_169
*1179 FILLER_25_181
*1180 FILLER_25_193
*1181 FILLER_25_205
*1182 FILLER_25_217
*1183 FILLER_25_223
*1184 FILLER_25_225
*1185 FILLER_25_237
*1186 FILLER_25_243
*1187 FILLER_25_3
*1188 FILLER_25_36
*1189 FILLER_25_47
*1190 FILLER_25_54
*1191 FILLER_25_57
*1192 FILLER_25_61
*1193 FILLER_25_69
*1194 FILLER_25_93
*1195 FILLER_26_113
*1196 FILLER_26_125
*1197 FILLER_26_137
*1198 FILLER_26_141
*1199 FILLER_26_153
*1200 FILLER_26_161
*1201 FILLER_26_166
*1202 FILLER_26_178
*1203 FILLER_26_18
*1204 FILLER_26_190
*1205 FILLER_26_197
*1206 FILLER_26_209
*1207 FILLER_26_221
*1208 FILLER_26_233
*1209 FILLER_26_241
*1210 FILLER_26_26
*1211 FILLER_26_29
*1212 FILLER_26_3
*1213 FILLER_26_37
*1214 FILLER_26_54
*1215 FILLER_26_62
*1216 FILLER_26_79
*1217 FILLER_26_83
*1218 FILLER_26_85
*1219 FILLER_26_89
*1220 FILLER_27_110
*1221 FILLER_27_113
*1222 FILLER_27_117
*1223 FILLER_27_129
*1224 FILLER_27_141
*1225 FILLER_27_153
*1226 FILLER_27_165
*1227 FILLER_27_169
*1228 FILLER_27_181
*1229 FILLER_27_193
*1230 FILLER_27_205
*1231 FILLER_27_217
*1232 FILLER_27_223
*1233 FILLER_27_225
*1234 FILLER_27_237
*1235 FILLER_27_243
*1236 FILLER_27_27
*1237 FILLER_27_3
*1238 FILLER_27_48
*1239 FILLER_27_57
*1240 FILLER_27_63
*1241 FILLER_27_81
*1242 FILLER_27_93
*1243 FILLER_28_111
*1244 FILLER_28_132
*1245 FILLER_28_141
*1246 FILLER_28_153
*1247 FILLER_28_165
*1248 FILLER_28_177
*1249 FILLER_28_189
*1250 FILLER_28_195
*1251 FILLER_28_197
*1252 FILLER_28_209
*1253 FILLER_28_221
*1254 FILLER_28_233
*1255 FILLER_28_241
*1256 FILLER_28_26
*1257 FILLER_28_29
*1258 FILLER_28_3
*1259 FILLER_28_41
*1260 FILLER_28_65
*1261 FILLER_28_73
*1262 FILLER_28_79
*1263 FILLER_28_83
*1264 FILLER_28_85
*1265 FILLER_28_9
*1266 FILLER_28_93
*1267 FILLER_29_110
*1268 FILLER_29_113
*1269 FILLER_29_117
*1270 FILLER_29_123
*1271 FILLER_29_135
*1272 FILLER_29_147
*1273 FILLER_29_15
*1274 FILLER_29_159
*1275 FILLER_29_167
*1276 FILLER_29_169
*1277 FILLER_29_181
*1278 FILLER_29_193
*1279 FILLER_29_205
*1280 FILLER_29_217
*1281 FILLER_29_223
*1282 FILLER_29_225
*1283 FILLER_29_23
*1284 FILLER_29_237
*1285 FILLER_29_243
*1286 FILLER_29_3
*1287 FILLER_29_42
*1288 FILLER_29_54
*1289 FILLER_29_57
*1290 FILLER_29_81
*1291 FILLER_29_93
*1292 FILLER_2_106
*1293 FILLER_2_113
*1294 FILLER_2_12
*1295 FILLER_2_124
*1296 FILLER_2_130
*1297 FILLER_2_136
*1298 FILLER_2_141
*1299 FILLER_2_145
*1300 FILLER_2_149
*1301 FILLER_2_152
*1302 FILLER_2_158
*1303 FILLER_2_164
*1304 FILLER_2_172
*1305 FILLER_2_178
*1306 FILLER_2_184
*1307 FILLER_2_19
*1308 FILLER_2_197
*1309 FILLER_2_209
*1310 FILLER_2_221
*1311 FILLER_2_233
*1312 FILLER_2_242
*1313 FILLER_2_26
*1314 FILLER_2_29
*1315 FILLER_2_3
*1316 FILLER_2_42
*1317 FILLER_2_49
*1318 FILLER_2_61
*1319 FILLER_2_72
*1320 FILLER_2_81
*1321 FILLER_2_85
*1322 FILLER_2_95
*1323 FILLER_30_11
*1324 FILLER_30_116
*1325 FILLER_30_122
*1326 FILLER_30_134
*1327 FILLER_30_141
*1328 FILLER_30_153
*1329 FILLER_30_16
*1330 FILLER_30_165
*1331 FILLER_30_177
*1332 FILLER_30_185
*1333 FILLER_30_189
*1334 FILLER_30_195
*1335 FILLER_30_197
*1336 FILLER_30_209
*1337 FILLER_30_221
*1338 FILLER_30_233
*1339 FILLER_30_241
*1340 FILLER_30_29
*1341 FILLER_30_3
*1342 FILLER_30_41
*1343 FILLER_30_58
*1344 FILLER_30_79
*1345 FILLER_30_83
*1346 FILLER_30_85
*1347 FILLER_30_90
*1348 FILLER_30_96
*1349 FILLER_31_103
*1350 FILLER_31_111
*1351 FILLER_31_113
*1352 FILLER_31_125
*1353 FILLER_31_137
*1354 FILLER_31_149
*1355 FILLER_31_15
*1356 FILLER_31_161
*1357 FILLER_31_167
*1358 FILLER_31_169
*1359 FILLER_31_181
*1360 FILLER_31_193
*1361 FILLER_31_205
*1362 FILLER_31_217
*1363 FILLER_31_223
*1364 FILLER_31_225
*1365 FILLER_31_237
*1366 FILLER_31_243
*1367 FILLER_31_27
*1368 FILLER_31_3
*1369 FILLER_31_44
*1370 FILLER_31_57
*1371 FILLER_31_67
*1372 FILLER_31_91
*1373 FILLER_32_110
*1374 FILLER_32_130
*1375 FILLER_32_138
*1376 FILLER_32_141
*1377 FILLER_32_15
*1378 FILLER_32_153
*1379 FILLER_32_165
*1380 FILLER_32_177
*1381 FILLER_32_189
*1382 FILLER_32_195
*1383 FILLER_32_197
*1384 FILLER_32_209
*1385 FILLER_32_221
*1386 FILLER_32_233
*1387 FILLER_32_241
*1388 FILLER_32_27
*1389 FILLER_32_29
*1390 FILLER_32_3
*1391 FILLER_32_48
*1392 FILLER_32_60
*1393 FILLER_32_78
*1394 FILLER_32_85
*1395 FILLER_32_93
*1396 FILLER_33_110
*1397 FILLER_33_113
*1398 FILLER_33_117
*1399 FILLER_33_125
*1400 FILLER_33_131
*1401 FILLER_33_143
*1402 FILLER_33_15
*1403 FILLER_33_155
*1404 FILLER_33_167
*1405 FILLER_33_169
*1406 FILLER_33_181
*1407 FILLER_33_193
*1408 FILLER_33_205
*1409 FILLER_33_217
*1410 FILLER_33_223
*1411 FILLER_33_225
*1412 FILLER_33_237
*1413 FILLER_33_243
*1414 FILLER_33_27
*1415 FILLER_33_3
*1416 FILLER_33_33
*1417 FILLER_33_50
*1418 FILLER_33_57
*1419 FILLER_33_65
*1420 FILLER_33_82
*1421 FILLER_34_121
*1422 FILLER_34_136
*1423 FILLER_34_141
*1424 FILLER_34_15
*1425 FILLER_34_153
*1426 FILLER_34_165
*1427 FILLER_34_177
*1428 FILLER_34_189
*1429 FILLER_34_195
*1430 FILLER_34_197
*1431 FILLER_34_209
*1432 FILLER_34_221
*1433 FILLER_34_233
*1434 FILLER_34_241
*1435 FILLER_34_27
*1436 FILLER_34_29
*1437 FILLER_34_3
*1438 FILLER_34_57
*1439 FILLER_34_77
*1440 FILLER_34_83
*1441 FILLER_34_85
*1442 FILLER_34_97
*1443 FILLER_35_110
*1444 FILLER_35_113
*1445 FILLER_35_131
*1446 FILLER_35_143
*1447 FILLER_35_15
*1448 FILLER_35_150
*1449 FILLER_35_162
*1450 FILLER_35_169
*1451 FILLER_35_181
*1452 FILLER_35_193
*1453 FILLER_35_205
*1454 FILLER_35_217
*1455 FILLER_35_223
*1456 FILLER_35_225
*1457 FILLER_35_237
*1458 FILLER_35_243
*1459 FILLER_35_27
*1460 FILLER_35_3
*1461 FILLER_35_39
*1462 FILLER_35_51
*1463 FILLER_35_55
*1464 FILLER_35_57
*1465 FILLER_35_76
*1466 FILLER_35_88
*1467 FILLER_36_110
*1468 FILLER_36_113
*1469 FILLER_36_131
*1470 FILLER_36_138
*1471 FILLER_36_141
*1472 FILLER_36_148
*1473 FILLER_36_15
*1474 FILLER_36_154
*1475 FILLER_36_166
*1476 FILLER_36_169
*1477 FILLER_36_177
*1478 FILLER_36_181
*1479 FILLER_36_187
*1480 FILLER_36_195
*1481 FILLER_36_197
*1482 FILLER_36_209
*1483 FILLER_36_221
*1484 FILLER_36_225
*1485 FILLER_36_231
*1486 FILLER_36_235
*1487 FILLER_36_241
*1488 FILLER_36_27
*1489 FILLER_36_29
*1490 FILLER_36_3
*1491 FILLER_36_41
*1492 FILLER_36_53
*1493 FILLER_36_57
*1494 FILLER_36_63
*1495 FILLER_36_66
*1496 FILLER_36_74
*1497 FILLER_36_82
*1498 FILLER_36_85
*1499 FILLER_36_90
*1500 FILLER_3_107
*1501 FILLER_3_111
*1502 FILLER_3_113
*1503 FILLER_3_123
*1504 FILLER_3_13
*1505 FILLER_3_132
*1506 FILLER_3_138
*1507 FILLER_3_142
*1508 FILLER_3_145
*1509 FILLER_3_151
*1510 FILLER_3_155
*1511 FILLER_3_159
*1512 FILLER_3_162
*1513 FILLER_3_169
*1514 FILLER_3_173
*1515 FILLER_3_176
*1516 FILLER_3_188
*1517 FILLER_3_192
*1518 FILLER_3_195
*1519 FILLER_3_20
*1520 FILLER_3_207
*1521 FILLER_3_219
*1522 FILLER_3_223
*1523 FILLER_3_225
*1524 FILLER_3_237
*1525 FILLER_3_243
*1526 FILLER_3_27
*1527 FILLER_3_3
*1528 FILLER_3_37
*1529 FILLER_3_44
*1530 FILLER_3_54
*1531 FILLER_3_57
*1532 FILLER_3_67
*1533 FILLER_3_7
*1534 FILLER_3_77
*1535 FILLER_4_101
*1536 FILLER_4_105
*1537 FILLER_4_114
*1538 FILLER_4_127
*1539 FILLER_4_136
*1540 FILLER_4_141
*1541 FILLER_4_152
*1542 FILLER_4_161
*1543 FILLER_4_165
*1544 FILLER_4_168
*1545 FILLER_4_174
*1546 FILLER_4_178
*1547 FILLER_4_18
*1548 FILLER_4_181
*1549 FILLER_4_187
*1550 FILLER_4_193
*1551 FILLER_4_197
*1552 FILLER_4_201
*1553 FILLER_4_213
*1554 FILLER_4_22
*1555 FILLER_4_225
*1556 FILLER_4_237
*1557 FILLER_4_243
*1558 FILLER_4_26
*1559 FILLER_4_29
*1560 FILLER_4_3
*1561 FILLER_4_40
*1562 FILLER_4_52
*1563 FILLER_4_60
*1564 FILLER_4_69
*1565 FILLER_4_7
*1566 FILLER_4_73
*1567 FILLER_4_80
*1568 FILLER_4_85
*1569 FILLER_4_93
*1570 FILLER_5_109
*1571 FILLER_5_113
*1572 FILLER_5_122
*1573 FILLER_5_131
*1574 FILLER_5_143
*1575 FILLER_5_152
*1576 FILLER_5_158
*1577 FILLER_5_164
*1578 FILLER_5_169
*1579 FILLER_5_17
*1580 FILLER_5_174
*1581 FILLER_5_180
*1582 FILLER_5_186
*1583 FILLER_5_193
*1584 FILLER_5_205
*1585 FILLER_5_212
*1586 FILLER_5_225
*1587 FILLER_5_237
*1588 FILLER_5_243
*1589 FILLER_5_28
*1590 FILLER_5_3
*1591 FILLER_5_34
*1592 FILLER_5_45
*1593 FILLER_5_52
*1594 FILLER_5_57
*1595 FILLER_5_62
*1596 FILLER_5_73
*1597 FILLER_5_79
*1598 FILLER_5_89
*1599 FILLER_5_98
*1600 FILLER_6_103
*1601 FILLER_6_115
*1602 FILLER_6_125
*1603 FILLER_6_138
*1604 FILLER_6_141
*1605 FILLER_6_149
*1606 FILLER_6_155
*1607 FILLER_6_163
*1608 FILLER_6_17
*1609 FILLER_6_170
*1610 FILLER_6_180
*1611 FILLER_6_194
*1612 FILLER_6_197
*1613 FILLER_6_205
*1614 FILLER_6_214
*1615 FILLER_6_220
*1616 FILLER_6_232
*1617 FILLER_6_24
*1618 FILLER_6_29
*1619 FILLER_6_3
*1620 FILLER_6_34
*1621 FILLER_6_38
*1622 FILLER_6_60
*1623 FILLER_6_66
*1624 FILLER_6_74
*1625 FILLER_6_82
*1626 FILLER_6_85
*1627 FILLER_6_93
*1628 FILLER_7_110
*1629 FILLER_7_113
*1630 FILLER_7_117
*1631 FILLER_7_12
*1632 FILLER_7_127
*1633 FILLER_7_140
*1634 FILLER_7_144
*1635 FILLER_7_151
*1636 FILLER_7_159
*1637 FILLER_7_166
*1638 FILLER_7_169
*1639 FILLER_7_174
*1640 FILLER_7_182
*1641 FILLER_7_190
*1642 FILLER_7_199
*1643 FILLER_7_211
*1644 FILLER_7_220
*1645 FILLER_7_225
*1646 FILLER_7_229
*1647 FILLER_7_24
*1648 FILLER_7_241
*1649 FILLER_7_3
*1650 FILLER_7_38
*1651 FILLER_7_50
*1652 FILLER_7_57
*1653 FILLER_7_67
*1654 FILLER_7_75
*1655 FILLER_7_87
*1656 FILLER_7_97
*1657 FILLER_8_110
*1658 FILLER_8_118
*1659 FILLER_8_125
*1660 FILLER_8_129
*1661 FILLER_8_133
*1662 FILLER_8_139
*1663 FILLER_8_141
*1664 FILLER_8_145
*1665 FILLER_8_151
*1666 FILLER_8_16
*1667 FILLER_8_160
*1668 FILLER_8_172
*1669 FILLER_8_184
*1670 FILLER_8_194
*1671 FILLER_8_197
*1672 FILLER_8_201
*1673 FILLER_8_210
*1674 FILLER_8_222
*1675 FILLER_8_230
*1676 FILLER_8_24
*1677 FILLER_8_242
*1678 FILLER_8_29
*1679 FILLER_8_3
*1680 FILLER_8_38
*1681 FILLER_8_49
*1682 FILLER_8_61
*1683 FILLER_8_67
*1684 FILLER_8_78
*1685 FILLER_8_85
*1686 FILLER_8_9
*1687 FILLER_8_94
*1688 FILLER_9_100
*1689 FILLER_9_11
*1690 FILLER_9_110
*1691 FILLER_9_113
*1692 FILLER_9_122
*1693 FILLER_9_133
*1694 FILLER_9_141
*1695 FILLER_9_150
*1696 FILLER_9_161
*1697 FILLER_9_167
*1698 FILLER_9_169
*1699 FILLER_9_178
*1700 FILLER_9_188
*1701 FILLER_9_195
*1702 FILLER_9_201
*1703 FILLER_9_208
*1704 FILLER_9_21
*1705 FILLER_9_217
*1706 FILLER_9_223
*1707 FILLER_9_225
*1708 FILLER_9_234
*1709 FILLER_9_240
*1710 FILLER_9_3
*1711 FILLER_9_30
*1712 FILLER_9_43
*1713 FILLER_9_49
*1714 FILLER_9_54
*1715 FILLER_9_57
*1716 FILLER_9_63
*1717 FILLER_9_80
*1718 FILLER_9_90
*1719 PHY_0
*1720 PHY_1
*1721 PHY_10
*1722 PHY_11
*1723 PHY_12
*1724 PHY_13
*1725 PHY_14
*1726 PHY_15
*1727 PHY_16
*1728 PHY_17
*1729 PHY_18
*1730 PHY_19
*1731 PHY_2
*1732 PHY_20
*1733 PHY_21
*1734 PHY_22
*1735 PHY_23
*1736 PHY_24
*1737 PHY_25
*1738 PHY_26
*1739 PHY_27
*1740 PHY_28
*1741 PHY_29
*1742 PHY_3
*1743 PHY_30
*1744 PHY_31
*1745 PHY_32
*1746 PHY_33
*1747 PHY_34
*1748 PHY_35
*1749 PHY_36
*1750 PHY_37
*1751 PHY_38
*1752 PHY_39
*1753 PHY_4
*1754 PHY_40
*1755 PHY_41
*1756 PHY_42