*SPEF "ieee 1481-1999"
*DESIGN "tt2_tholin_multiplier"
*DATE "11:11:11 Fri 11 11, 1111"
*VENDOR "OpenRCX"
*PROGRAM "Parallel Extraction"
*VERSION "1.0"
*DESIGN_FLOW "NAME_SCOPE LOCAL" "PIN_CAP NONE"
*DIVIDER /
*DELIMITER :
*BUS_DELIMITER []
*T_UNIT 1 NS
*C_UNIT 1 PF
*R_UNIT 1 OHM
*L_UNIT 1 HENRY

*NAME_MAP
*1 io_in[0]
*2 io_in[1]
*3 io_in[2]
*4 io_in[3]
*5 io_in[4]
*6 io_in[5]
*7 io_in[6]
*8 io_in[7]
*9 io_out[0]
*10 io_out[1]
*11 io_out[2]
*12 io_out[3]
*13 io_out[4]
*14 io_out[5]
*15 io_out[6]
*16 io_out[7]
*19 _000_
*20 _001_
*21 _002_
*22 _003_
*23 _004_
*24 _005_
*25 _006_
*26 _007_
*27 _008_
*28 _009_
*29 _010_
*30 _011_
*31 _012_
*32 _013_
*33 _014_
*34 _015_
*35 _016_
*36 _017_
*37 _018_
*38 _019_
*39 _020_
*40 _021_
*41 _022_
*42 _023_
*43 _024_
*44 _025_
*45 _026_
*46 _027_
*47 _028_
*48 _029_
*49 _030_
*50 _031_
*51 _032_
*52 _033_
*53 _034_
*54 _035_
*55 _036_
*56 _037_
*57 _038_
*58 _039_
*59 _040_
*60 _041_
*61 _042_
*62 _043_
*63 _044_
*64 _045_
*65 _046_
*66 _047_
*67 _048_
*68 _049_
*69 _050_
*70 _051_
*71 net1
*72 net10
*73 net11
*74 net12
*75 net13
*76 net14
*77 net15
*78 net16
*79 net2
*80 net3
*81 net4
*82 net5
*83 net6
*84 net7
*85 net8
*86 net9
*87 ANTENNA_input1_A
*88 ANTENNA_input2_A
*89 ANTENNA_input3_A
*90 ANTENNA_input4_A
*91 ANTENNA_input5_A
*92 ANTENNA_input6_A
*93 ANTENNA_input7_A
*94 ANTENNA_input8_A
*95 FILLER_0_19
*96 FILLER_0_25
*97 FILLER_0_29
*98 FILLER_0_3
*99 FILLER_0_37
*100 FILLER_0_51
*101 FILLER_0_55
*102 FILLER_0_57
*103 FILLER_0_67
*104 FILLER_0_75
*105 FILLER_0_82
*106 FILLER_0_85
*107 FILLER_0_9
*108 FILLER_0_99
*109 FILLER_10_21
*110 FILLER_10_27
*111 FILLER_10_29
*112 FILLER_10_3
*113 FILLER_10_41
*114 FILLER_10_50
*115 FILLER_10_62
*116 FILLER_10_74
*117 FILLER_10_82
*118 FILLER_10_85
*119 FILLER_10_97
*120 FILLER_11_101
*121 FILLER_11_11
*122 FILLER_11_20
*123 FILLER_11_3
*124 FILLER_11_35
*125 FILLER_11_47
*126 FILLER_11_55
*127 FILLER_11_57
*128 FILLER_11_69
*129 FILLER_11_81
*130 FILLER_11_93
*131 FILLER_12_19
*132 FILLER_12_27
*133 FILLER_12_29
*134 FILLER_12_3
*135 FILLER_12_41
*136 FILLER_12_47
*137 FILLER_12_53
*138 FILLER_12_60
*139 FILLER_12_7
*140 FILLER_12_71
*141 FILLER_12_82
*142 FILLER_12_85
*143 FILLER_12_97
*144 FILLER_13_101
*145 FILLER_13_19
*146 FILLER_13_3
*147 FILLER_13_31
*148 FILLER_13_43
*149 FILLER_13_55
*150 FILLER_13_57
*151 FILLER_13_69
*152 FILLER_13_7
*153 FILLER_13_81
*154 FILLER_13_93
*155 FILLER_14_11
*156 FILLER_14_19
*157 FILLER_14_26
*158 FILLER_14_29
*159 FILLER_14_3
*160 FILLER_14_39
*161 FILLER_14_51
*162 FILLER_14_63
*163 FILLER_14_75
*164 FILLER_14_83
*165 FILLER_14_85
*166 FILLER_14_97
*167 FILLER_15_101
*168 FILLER_15_15
*169 FILLER_15_3
*170 FILLER_15_32
*171 FILLER_15_44
*172 FILLER_15_57
*173 FILLER_15_65
*174 FILLER_15_77
*175 FILLER_15_89
*176 FILLER_16_22
*177 FILLER_16_29
*178 FILLER_16_3
*179 FILLER_16_40
*180 FILLER_16_54
*181 FILLER_16_65
*182 FILLER_16_77
*183 FILLER_16_83
*184 FILLER_16_85
*185 FILLER_16_97
*186 FILLER_17_102
*187 FILLER_17_11
*188 FILLER_17_15
*189 FILLER_17_27
*190 FILLER_17_3
*191 FILLER_17_39
*192 FILLER_17_52
*193 FILLER_17_57
*194 FILLER_17_62
*195 FILLER_17_7
*196 FILLER_17_74
*197 FILLER_17_86
*198 FILLER_17_98
*199 FILLER_18_11
*200 FILLER_18_23
*201 FILLER_18_27
*202 FILLER_18_29
*203 FILLER_18_3
*204 FILLER_18_41
*205 FILLER_18_53
*206 FILLER_18_65
*207 FILLER_18_77
*208 FILLER_18_83
*209 FILLER_18_85
*210 FILLER_18_97
*211 FILLER_19_101
*212 FILLER_19_15
*213 FILLER_19_27
*214 FILLER_19_3
*215 FILLER_19_39
*216 FILLER_19_51
*217 FILLER_19_55
*218 FILLER_19_57
*219 FILLER_19_69
*220 FILLER_19_81
*221 FILLER_19_93
*222 FILLER_1_101
*223 FILLER_1_11
*224 FILLER_1_18
*225 FILLER_1_25
*226 FILLER_1_3
*227 FILLER_1_37
*228 FILLER_1_49
*229 FILLER_1_55
*230 FILLER_1_57
*231 FILLER_1_69
*232 FILLER_1_81
*233 FILLER_1_93
*234 FILLER_20_15
*235 FILLER_20_27
*236 FILLER_20_29
*237 FILLER_20_3
*238 FILLER_20_41
*239 FILLER_20_53
*240 FILLER_20_65
*241 FILLER_20_77
*242 FILLER_20_83
*243 FILLER_20_85
*244 FILLER_20_97
*245 FILLER_21_101
*246 FILLER_21_19
*247 FILLER_21_3
*248 FILLER_21_31
*249 FILLER_21_43
*250 FILLER_21_55
*251 FILLER_21_57
*252 FILLER_21_69
*253 FILLER_21_7
*254 FILLER_21_81
*255 FILLER_21_93
*256 FILLER_22_11
*257 FILLER_22_23
*258 FILLER_22_27
*259 FILLER_22_29
*260 FILLER_22_3
*261 FILLER_22_41
*262 FILLER_22_53
*263 FILLER_22_65
*264 FILLER_22_77
*265 FILLER_22_83
*266 FILLER_22_85
*267 FILLER_22_97
*268 FILLER_23_101
*269 FILLER_23_19
*270 FILLER_23_3
*271 FILLER_23_31
*272 FILLER_23_43
*273 FILLER_23_55
*274 FILLER_23_57
*275 FILLER_23_69
*276 FILLER_23_7
*277 FILLER_23_81
*278 FILLER_23_93
*279 FILLER_24_21
*280 FILLER_24_27
*281 FILLER_24_29
*282 FILLER_24_3
*283 FILLER_24_41
*284 FILLER_24_53
*285 FILLER_24_57
*286 FILLER_24_69
*287 FILLER_24_81
*288 FILLER_24_85
*289 FILLER_24_9
*290 FILLER_24_97
*291 FILLER_2_102
*292 FILLER_2_15
*293 FILLER_2_26
*294 FILLER_2_29
*295 FILLER_2_3
*296 FILLER_2_36
*297 FILLER_2_40
*298 FILLER_2_44
*299 FILLER_2_55
*300 FILLER_2_63
*301 FILLER_2_73
*302 FILLER_2_81
*303 FILLER_2_85
*304 FILLER_2_94
*305 FILLER_3_102
*306 FILLER_3_19
*307 FILLER_3_3
*308 FILLER_3_30
*309 FILLER_3_41
*310 FILLER_3_47
*311 FILLER_3_54
*312 FILLER_3_57
*313 FILLER_3_64
*314 FILLER_3_74
*315 FILLER_3_84
*316 FILLER_3_9
*317 FILLER_3_96
*318 FILLER_4_12
*319 FILLER_4_19
*320 FILLER_4_26
*321 FILLER_4_29
*322 FILLER_4_3
*323 FILLER_4_33
*324 FILLER_4_38
*325 FILLER_4_46
*326 FILLER_4_54
*327 FILLER_4_66
*328 FILLER_4_71
*329 FILLER_4_83
*330 FILLER_4_85
*331 FILLER_4_97
*332 FILLER_5_10
*333 FILLER_5_101
*334 FILLER_5_16
*335 FILLER_5_23
*336 FILLER_5_3
*337 FILLER_5_35
*338 FILLER_5_47
*339 FILLER_5_55
*340 FILLER_5_57
*341 FILLER_5_69
*342 FILLER_5_81
*343 FILLER_5_93
*344 FILLER_6_14
*345 FILLER_6_23
*346 FILLER_6_27
*347 FILLER_6_29
*348 FILLER_6_3
*349 FILLER_6_41
*350 FILLER_6_49
*351 FILLER_6_61
*352 FILLER_6_73
*353 FILLER_6_81
*354 FILLER_6_85
*355 FILLER_6_97
*356 FILLER_7_13
*357 FILLER_7_25
*358 FILLER_7_3
*359 FILLER_7_37
*360 FILLER_7_41
*361 FILLER_7_48
*362 FILLER_7_57
*363 FILLER_7_63
*364 FILLER_7_7
*365 FILLER_7_70
*366 FILLER_7_79
*367 FILLER_7_91
*368 FILLER_8_15
*369 FILLER_8_27
*370 FILLER_8_29
*371 FILLER_8_3
*372 FILLER_8_41
*373 FILLER_8_50
*374 FILLER_8_58
*375 FILLER_8_65
*376 FILLER_8_77
*377 FILLER_8_83
*378 FILLER_8_85
*379 FILLER_8_97
*380 FILLER_9_102
*381 FILLER_9_15
*382 FILLER_9_24
*383 FILLER_9_3
*384 FILLER_9_35
*385 FILLER_9_42
*386 FILLER_9_50
*387 FILLER_9_57
*388 FILLER_9_7
*389 FILLER_9_72
*390 FILLER_9_84
*391 FILLER_9_96
*392 PHY_0
*393 PHY_1
*394 PHY_10
*395 PHY_11
*396 PHY_12
*397 PHY_13
*398 PHY_14
*399 PHY_15
*400 PHY_16
*401 PHY_17
*402 PHY_18
*403 PHY_19
*404 PHY_2
*405 PHY_20
*406 PHY_21
*407 PHY_22
*408 PHY_23
*409 PHY_24
*410 PHY_25
*411 PHY_26
*412 PHY_27
*413 PHY_28
*414 PHY_29
*415 PHY_3
*416 PHY_30
*417 PHY_31
*418 PHY_32
*419 PHY_33
*420 PHY_34
*421 PHY_35
*422 PHY_36
*423 PHY_37
*424 PHY_38
*425 PHY_39
*426 PHY_4
*427 PHY_40
*428 PHY_41
*429 PHY_42
*430 PHY_43
*431 PHY_44
*432 PHY_45
*433 PHY_46
*434 PHY_47
*435 PHY_48
*436 PHY_49
*437 PHY_5
*438 PHY_6
*439 PHY_7
*440 PHY_8
*441 PHY_9
*442 TAP_50
*443 TAP_51
*444 TAP_52
*445 TAP_53
*446 TAP_54
*447 TAP_55
*448 TAP_56
*449 TAP_57
*450 TAP_58
*451 TAP_59
*452 TAP_60
*453 TAP_61
*454 TAP_62
*455 TAP_63
*456 TAP_64
*457 TAP_65
*458 TAP_66
*459 TAP_67
*460 TAP_68
*461 TAP_69
*462 TAP_70
*463 TAP_71
*464 TAP_72
*465 TAP_73
*466 TAP_74
*467 TAP_75
*468 TAP_76
*469 TAP_77
*470 TAP_78
*471 TAP_79
*472 TAP_80
*473 TAP_81
*474 TAP_82
*475 TAP_83
*476 TAP_84
*477 TAP_85
*478 TAP_86
*479 TAP_87
*480 TAP_88
*481 TAP_89
*482 _052_
*483 _053_
*484 _054_
*485 _055_
*486 _056_
*487 _057_
*488 _058_
*489 _059_
*490 _060_
*491 _061_
*492 _062_
*493 _063_
*494 _064_
*495 _065_
*496 _066_
*497 _067_
*498 _068_
*499 _069_
*500 _070_
*501 _071_
*502 _072_
*503 _073_
*504 _074_
*505 _075_
*506 _076_
*507 _077_
*508 _078_
*509 _079_
*510 _080_
*511 _081_
*512 _082_
*513 _083_
*514 _084_
*515 _085_
*516 _086_
*517 _087_
*518 _088_
*519 _089_
*520 _090_
*521 _091_
*522 _092_
*523 _093_
*524 _094_
*525 _095_
*526 _096_
*527 _097_
*528 _098_
*529 _099_
*530 _100_
*531 _101_
*532 _102_
*533 _103_
*534 _104_
*535 _105_
*536 _106_
*537 _107_
*538 _108_
*539 _109_
*540 _110_
*541 _111_
*542 input1
*543 input2
*544 input3
*545 input4
*546 input5
*547 input6
*548 input7
*549 input8
*550 output10
*551 output11
*552 output12
*553 output13
*554 output14
*555 output15
*556 output16
*557 output9

*PORTS
io_in[0] I
io_in[1] I
io_in[2] I
io_in[3] I
io_in[4] I
io_in[5] I
io_in[6] I
io_in[7] I
io_out[0] O
io_out[1] O
io_out[2] O
io_out[3] O
io_out[4] O
io_out[5] O
io_out[6] O
io_out[7] O

*D_NET *1 0.00157497
*CONN
*P io_in[0] I
*I *87:DIODE I *D sky130_fd_sc_hd__diode_2
*I *542:A I *D sky130_fd_sc_hd__buf_2
*CAP
1 io_in[0] 0.000409727
2 *87:DIODE 0.000377759
3 *542:A 0
4 *1:11 0.000787486
5 *87:DIODE io_out[1] 0
6 *87:DIODE *484:B 0
7 *87:DIODE *550:A 0
8 *87:DIODE *71:8 0
9 *1:11 *9:9 0
*RES
1 io_in[0] *1:11 20.8197 
2 *1:11 *542:A 9.3 
3 *1:11 *87:DIODE 17.2464 
*END

*D_NET *2 0.00159488
*CONN
*P io_in[1] I
*I *543:A I *D sky130_fd_sc_hd__buf_2
*I *88:DIODE I *D sky130_fd_sc_hd__diode_2
*CAP
1 io_in[1] 0.000387169
2 *543:A 0
3 *88:DIODE 0.000410271
4 *2:11 0.00079744
5 *88:DIODE *486:A2 0
6 *88:DIODE *488:B1 0
7 *88:DIODE *23:10 0
8 *88:DIODE *71:8 0
9 *88:DIODE *71:17 0
10 *88:DIODE *79:8 0
11 *88:DIODE *79:17 0
12 *88:DIODE *83:18 0
13 *2:11 *484:A 0
14 *2:11 *79:8 0
*RES
1 io_in[1] *2:11 19.9268 
2 *2:11 *88:DIODE 37.5857 
3 *2:11 *543:A 9.3 
*END

*D_NET *3 0.000890187
*CONN
*P io_in[2] I
*I *89:DIODE I *D sky130_fd_sc_hd__diode_2
*I *544:A I *D sky130_fd_sc_hd__buf_6
*CAP
1 io_in[2] 7.94409e-05
2 *89:DIODE 0.000205426
3 *544:A 0.000160227
4 *3:8 0.000445094
5 *89:DIODE *82:10 0
*RES
1 io_in[2] *3:8 3.96252 
2 *3:8 *544:A 21.7107 
3 *3:8 *89:DIODE 23.2464 
*END

*D_NET *4 0.0010374
*CONN
*P io_in[3] I
*I *90:DIODE I *D sky130_fd_sc_hd__diode_2
*I *545:A I *D sky130_fd_sc_hd__buf_4
*CAP
1 io_in[3] 0.000184385
2 *90:DIODE 0.000193769
3 *545:A 0.000140547
4 *4:8 0.000518702
5 *90:DIODE *82:8 0
6 *4:8 *82:8 0
7 *4:8 *82:10 0
*RES
1 io_in[3] *4:8 6.69466 
2 *4:8 *545:A 21.3 
3 *4:8 *90:DIODE 22.9429 
*END

*D_NET *5 0.000577338
*CONN
*P io_in[4] I
*I *546:A I *D sky130_fd_sc_hd__buf_4
*I *91:DIODE I *D sky130_fd_sc_hd__diode_2
*CAP
1 io_in[4] 0.000223186
2 *546:A 0
3 *91:DIODE 6.54832e-05
4 *5:11 0.000288669
5 *91:DIODE *81:17 0
6 *91:DIODE *82:8 0
*RES
1 io_in[4] *5:11 15.9625 
2 *5:11 *91:DIODE 28.9429 
3 *5:11 *546:A 9.3 
*END

*D_NET *6 0.000843561
*CONN
*P io_in[5] I
*I *547:A I *D sky130_fd_sc_hd__clkbuf_4
*I *92:DIODE I *D sky130_fd_sc_hd__diode_2
*CAP
1 io_in[5] 7.94409e-05
2 *547:A 0.000150366
3 *92:DIODE 0.000191974
4 *6:8 0.00042178
*RES
1 io_in[5] *6:8 3.96252 
2 *6:8 *92:DIODE 22.6393 
3 *6:8 *547:A 21.7107 
*END

*D_NET *7 0.000843561
*CONN
*P io_in[6] I
*I *548:A I *D sky130_fd_sc_hd__clkbuf_4
*I *93:DIODE I *D sky130_fd_sc_hd__diode_2
*CAP
1 io_in[6] 7.94409e-05
2 *548:A 0.000150366
3 *93:DIODE 0.000191974
4 *7:8 0.00042178
*RES
1 io_in[6] *7:8 3.96252 
2 *7:8 *93:DIODE 22.6393 
3 *7:8 *548:A 21.7107 
*END

*D_NET *8 0.000917508
*CONN
*P io_in[7] I
*I *549:A I *D sky130_fd_sc_hd__buf_2
*I *94:DIODE I *D sky130_fd_sc_hd__diode_2
*CAP
1 io_in[7] 0.000396871
2 *549:A 0
3 *94:DIODE 6.18833e-05
4 *8:11 0.000458754
*RES
1 io_in[7] *8:11 20.5161 
2 *8:11 *94:DIODE 28.9429 
3 *8:11 *549:A 9.3 
*END

*D_NET *9 0.00121701
*CONN
*P io_out[0] O
*I *557:X O *D sky130_fd_sc_hd__buf_4
*CAP
1 io_out[0] 3.15416e-05
2 *557:X 0.000576963
3 *9:9 0.000608505
4 *9:9 io_out[1] 0
5 *9:9 *550:A 0
6 *9:9 *71:8 0
7 *1:11 *9:9 0
*RES
1 *557:X *9:9 41.175 
2 *9:9 io_out[0] 9.82143 
*END

*D_NET *10 0.000721976
*CONN
*P io_out[1] O
*I *550:X O *D sky130_fd_sc_hd__buf_4
*CAP
1 io_out[1] 0.000360988
2 *550:X 0.000360988
3 io_out[1] *550:A 0
4 *87:DIODE io_out[1] 0
5 *9:9 io_out[1] 0
*RES
1 *550:X io_out[1] 27.2643 
*END

*D_NET *11 0.000805596
*CONN
*P io_out[2] O
*I *551:X O *D sky130_fd_sc_hd__buf_4
*CAP
1 io_out[2] 0.000402798
2 *551:X 0.000402798
*RES
1 *551:X io_out[2] 46.2107 
*END

*D_NET *12 0.000693231
*CONN
*P io_out[3] O
*I *552:X O *D sky130_fd_sc_hd__buf_4
*CAP
1 io_out[3] 0.000346615
2 *552:X 0.000346615
*RES
1 *552:X io_out[3] 27.3893 
*END

*D_NET *13 0.000713026
*CONN
*P io_out[4] O
*I *553:X O *D sky130_fd_sc_hd__buf_4
*CAP
1 io_out[4] 0.000356513
2 *553:X 0.000356513
*RES
1 *553:X io_out[4] 27.5143 
*END

*D_NET *14 0.000935651
*CONN
*P io_out[5] O
*I *554:X O *D sky130_fd_sc_hd__buf_4
*CAP
1 io_out[5] 0.000467826
2 *554:X 0.000467826
3 io_out[5] io_out[6] 0
*RES
1 *554:X io_out[5] 47.5679 
*END

*D_NET *15 0.000721976
*CONN
*P io_out[6] O
*I *555:X O *D sky130_fd_sc_hd__buf_4
*CAP
1 io_out[6] 0.000360988
2 *555:X 0.000360988
3 io_out[5] io_out[6] 0
*RES
1 *555:X io_out[6] 27.2643 
*END

*D_NET *16 0.00116805
*CONN
*P io_out[7] O
*I *556:X O *D sky130_fd_sc_hd__buf_4
*CAP
1 io_out[7] 0.000584026
2 *556:X 0.000584026
*RES
1 *556:X io_out[7] 32.4607 
*END

*D_NET *19 0.000464994
*CONN
*I *491:A I *D sky130_fd_sc_hd__or4_1
*I *482:Y O *D sky130_fd_sc_hd__inv_2
*CAP
1 *491:A 0.000232497
2 *482:Y 0.000232497
3 *491:A *482:A 0
4 *491:A *491:B 0
5 *491:A *26:11 0
6 *491:A *29:18 0
*RES
1 *482:Y *491:A 41.7786 
*END

*D_NET *20 0.000247341
*CONN
*I *491:B I *D sky130_fd_sc_hd__or4_1
*I *483:Y O *D sky130_fd_sc_hd__inv_2
*CAP
1 *491:B 0.000123671
2 *483:Y 0.000123671
3 *491:B *488:A2 0
4 *491:B *491:C 0
5 *491:A *491:B 0
*RES
1 *483:Y *491:B 39.6893 
*END

*D_NET *21 0.000732178
*CONN
*I *491:C I *D sky130_fd_sc_hd__or4_1
*I *488:A1 I *D sky130_fd_sc_hd__o21a_1
*I *485:A I *D sky130_fd_sc_hd__inv_2
*I *484:Y O *D sky130_fd_sc_hd__nand2_1
*CAP
1 *491:C 8.39282e-05
2 *488:A1 2.56688e-05
3 *485:A 0.000181821
4 *484:Y 0
5 *21:16 0.000184268
6 *21:4 0.000256492
7 *485:A *557:A 0
8 *488:A1 *488:A2 0
9 *491:C *496:A 0
10 *21:16 *550:A 0
11 *21:16 *71:8 0
12 *491:B *491:C 0
*RES
1 *484:Y *21:4 9.3 
2 *21:4 *485:A 13.1571 
3 *21:4 *21:16 10.9464 
4 *21:16 *488:A1 18.8357 
5 *21:16 *491:C 20.55 
*END

*D_NET *22 0.000438525
*CONN
*I *488:B1 I *D sky130_fd_sc_hd__o21a_1
*I *486:X O *D sky130_fd_sc_hd__a22o_1
*CAP
1 *488:B1 0.000219263
2 *486:X 0.000219263
3 *488:B1 *71:8 0
4 *88:DIODE *488:B1 0
*RES
1 *486:X *488:B1 42.0464 
*END

*D_NET *23 0.00130019
*CONN
*I *493:A1 I *D sky130_fd_sc_hd__a21o_1
*I *488:A2 I *D sky130_fd_sc_hd__o21a_1
*I *491:D I *D sky130_fd_sc_hd__or4_1
*I *487:Y O *D sky130_fd_sc_hd__nand2_1
*CAP
1 *493:A1 6.20329e-05
2 *488:A2 0.00021344
3 *491:D 4.53482e-05
4 *487:Y 0.000124066
5 *23:10 0.000463997
6 *23:5 0.000391308
7 *488:A2 *496:A 0
8 *488:A2 *29:18 0
9 *493:A1 *493:A2 0
10 *493:A1 *82:37 0
11 *23:5 *82:37 0
12 *23:10 *483:A 0
13 *23:10 *486:A2 0
14 *23:10 *83:18 0
15 *88:DIODE *23:10 0
16 *488:A1 *488:A2 0
17 *491:B *488:A2 0
*RES
1 *487:Y *23:5 11.8893 
2 *23:5 *23:10 23.2857 
3 *23:10 *491:D 10.2464 
4 *23:10 *488:A2 32.2643 
5 *23:5 *493:A1 10.6571 
*END

*D_NET *24 0.00392816
*CONN
*I *511:A I *D sky130_fd_sc_hd__or2_1
*I *494:B1 I *D sky130_fd_sc_hd__a21oi_2
*I *495:A I *D sky130_fd_sc_hd__and3_1
*I *510:A I *D sky130_fd_sc_hd__nor2_1
*I *489:Y O *D sky130_fd_sc_hd__nand2_2
*CAP
1 *511:A 0.000104386
2 *494:B1 0.000285351
3 *495:A 0.000123705
4 *510:A 0
5 *489:Y 0.000621431
6 *24:30 0.00113937
7 *24:15 0.000829205
8 *24:10 0.000824712
9 *494:B1 *495:B 0
10 *494:B1 *520:A 0
11 *494:B1 *26:11 0
12 *495:A *495:B 0
13 *495:A *540:B 0
14 *511:A *511:B 0
15 *511:A *45:7 0
16 *24:10 *515:B1 0
17 *24:10 *519:A1 0
18 *24:10 *39:8 0
19 *24:10 *49:8 0
20 *24:15 *519:A1 0
21 *24:15 *32:25 0
22 *24:15 *49:8 0
23 *24:30 *515:B1 0
24 *24:30 *516:A 0
25 *24:30 *516:B 0
26 *24:30 *519:A1 0
27 *24:30 *520:B 0
28 *24:30 *540:B 0
29 *24:30 *32:5 0
30 *24:30 *43:8 0
31 *24:30 *46:9 0
32 *24:30 *48:6 0
33 *24:30 *49:8 0
*RES
1 *489:Y *24:10 32.0679 
2 *24:10 *24:15 11.4821 
3 *24:15 *510:A 9.3 
4 *24:15 *24:30 27.4643 
5 *24:30 *495:A 21.3893 
6 *24:30 *494:B1 24.3179 
7 *24:10 *511:A 20.4786 
*END

*D_NET *25 0.000285957
*CONN
*I *493:A2 I *D sky130_fd_sc_hd__a21o_1
*I *490:Y O *D sky130_fd_sc_hd__nand2_1
*CAP
1 *493:A2 0.000142979
2 *490:Y 0.000142979
3 *493:A2 *483:A 0
4 *493:A2 *493:B1 0
5 *493:A2 *82:37 0
6 *493:A1 *493:A2 0
*RES
1 *490:Y *493:A2 39.85 
*END

*D_NET *26 0.000844599
*CONN
*I *495:B I *D sky130_fd_sc_hd__and3_1
*I *494:A1 I *D sky130_fd_sc_hd__a21oi_2
*I *491:X O *D sky130_fd_sc_hd__or4_1
*CAP
1 *495:B 0.000198125
2 *494:A1 0
3 *491:X 0.000224174
4 *26:11 0.000422299
5 *495:B *520:A 0
6 *495:B *520:B 0
7 *495:B *29:18 0
8 *26:11 *29:18 0
9 *491:A *26:11 0
10 *494:B1 *495:B 0
11 *494:B1 *26:11 0
12 *495:A *495:B 0
*RES
1 *491:X *26:11 14.1036 
2 *26:11 *494:A1 9.3 
3 *26:11 *495:B 31.8357 
*END

*D_NET *27 0.00313052
*CONN
*I *506:A I *D sky130_fd_sc_hd__nand3_2
*I *504:A I *D sky130_fd_sc_hd__nand3_2
*I *522:A2 I *D sky130_fd_sc_hd__a21boi_2
*I *505:B1 I *D sky130_fd_sc_hd__a221o_2
*I *513:B1 I *D sky130_fd_sc_hd__a21o_1
*I *493:B1 I *D sky130_fd_sc_hd__a21o_1
*I *492:X O *D sky130_fd_sc_hd__o2111a_4
*CAP
1 *506:A 0
2 *504:A 4.23535e-05
3 *522:A2 0.000145196
4 *505:B1 0.000123424
5 *513:B1 0
6 *493:B1 0.000450154
7 *492:X 0
8 *27:40 0.00025108
9 *27:31 0.000297864
10 *27:26 0.00027134
11 *27:20 0.00062969
12 *27:5 0.000919414
13 *493:B1 *483:A 0
14 *493:B1 *490:A 0
15 *493:B1 *498:B 0
16 *493:B1 *519:B2 0
17 *493:B1 *80:19 0
18 *504:A *80:45 0
19 *505:B1 *80:45 0
20 *522:A2 *504:C 0
21 *522:A2 *81:49 0
22 *522:A2 *81:59 0
23 *27:20 *519:B1 0
24 *27:20 *519:B2 0
25 *27:20 *36:20 0
26 *27:20 *47:8 0
27 *27:20 *47:10 0
28 *27:20 *80:19 0
29 *27:20 *80:28 0
30 *27:26 *506:B 0
31 *27:26 *47:8 0
32 *27:31 *504:B 0
33 *27:31 *506:B 0
34 *27:31 *513:A1 0
35 *27:31 *35:8 0
36 *27:31 *38:8 0
37 *27:40 *80:45 0
38 *493:A2 *493:B1 0
*RES
1 *492:X *27:5 18.3 
2 *27:5 *493:B1 29.9607 
3 *27:5 *27:20 20.75 
4 *27:20 *513:B1 9.3 
5 *27:20 *27:26 3.41071 
6 *27:26 *27:31 20.8571 
7 *27:31 *505:B1 11.9071 
8 *27:31 *27:40 1.35714 
9 *27:40 *522:A2 30.8 
10 *27:40 *504:A 10.2464 
11 *27:26 *506:A 9.3 
*END

*D_NET *28 0.000998039
*CONN
*I *494:A2 I *D sky130_fd_sc_hd__a21oi_2
*I *495:C I *D sky130_fd_sc_hd__and3_1
*I *493:X O *D sky130_fd_sc_hd__a21o_1
*CAP
1 *494:A2 0
2 *495:C 0.000189818
3 *493:X 0.000309202
4 *28:8 0.000499019
5 *495:C *496:B 0
6 *495:C *551:A 0
7 *28:8 *482:A 0
*RES
1 *493:X *28:8 25.675 
2 *28:8 *495:C 22.7821 
3 *28:8 *494:A2 18.3 
*END

*D_NET *29 0.00113456
*CONN
*I *520:A I *D sky130_fd_sc_hd__and3_1
*I *539:B1 I *D sky130_fd_sc_hd__a21oi_1
*I *496:A I *D sky130_fd_sc_hd__nor2_1
*I *494:Y O *D sky130_fd_sc_hd__a21oi_2
*CAP
1 *520:A 8.17123e-05
2 *539:B1 0.000167418
3 *496:A 0.00011438
4 *494:Y 0
5 *29:18 0.000452903
6 *29:5 0.000318152
7 *496:A *551:A 0
8 *520:A *520:C 0
9 *539:B1 *520:B 0
10 *539:B1 *520:C 0
11 *488:A2 *496:A 0
12 *488:A2 *29:18 0
13 *491:A *29:18 0
14 *491:C *496:A 0
15 *494:B1 *520:A 0
16 *495:B *520:A 0
17 *495:B *29:18 0
18 *26:11 *29:18 0
*RES
1 *494:Y *29:5 18.3 
2 *29:5 *496:A 21.0857 
3 *29:5 *29:18 13.4464 
4 *29:18 *539:B1 31.1214 
5 *29:18 *520:A 11.0679 
*END

*D_NET *30 0.000318293
*CONN
*I *496:B I *D sky130_fd_sc_hd__nor2_1
*I *495:X O *D sky130_fd_sc_hd__and3_1
*CAP
1 *496:B 0.000159146
2 *495:X 0.000159146
3 *496:B *551:A 0
4 *495:C *496:B 0
*RES
1 *495:X *496:B 21.9214 
*END

*D_NET *31 0.00183946
*CONN
*I *535:A1 I *D sky130_fd_sc_hd__a21oi_2
*I *500:A I *D sky130_fd_sc_hd__xnor2_2
*I *499:A I *D sky130_fd_sc_hd__nor2_1
*I *497:Y O *D sky130_fd_sc_hd__nand2_2
*CAP
1 *535:A1 4.53482e-05
2 *500:A 0
3 *499:A 0.000193217
4 *497:Y 0.000367108
5 *31:15 0.000507274
6 *31:10 0.000726514
7 *499:A *499:B 0
8 *499:A *500:B 0
9 *499:A *34:18 0
10 *499:A *85:25 0
11 *535:A1 *536:A1 0
12 *535:A1 *66:7 0
13 *31:10 *534:B 0
14 *31:10 *66:7 0
15 *31:15 *60:8 0
16 *31:15 *85:25 0
*RES
1 *497:Y *31:10 26.1571 
2 *31:10 *31:15 17.0536 
3 *31:15 *499:A 31.925 
4 *31:15 *500:A 9.3 
5 *31:10 *535:A1 19.2464 
*END

*D_NET *32 0.00271906
*CONN
*I *499:B I *D sky130_fd_sc_hd__nor2_1
*I *500:B I *D sky130_fd_sc_hd__xnor2_2
*I *510:B I *D sky130_fd_sc_hd__nor2_1
*I *511:B I *D sky130_fd_sc_hd__or2_1
*I *498:Y O *D sky130_fd_sc_hd__nand2_2
*CAP
1 *499:B 0.000120943
2 *500:B 7.3263e-05
3 *510:B 0
4 *511:B 0.000286385
5 *498:Y 0.000379898
6 *32:25 0.000658169
7 *32:7 0.000321465
8 *32:5 0.000878942
9 *499:B *33:10 0
10 *499:B *41:14 0
11 *511:B *514:A 0
12 *511:B *519:A1 0
13 *511:B *45:7 0
14 *511:B *48:6 0
15 *32:5 *519:A1 0
16 *32:5 *46:9 0
17 *32:7 *46:9 0
18 *32:25 *509:A 0
19 *32:25 *34:5 0
20 *32:25 *43:8 0
21 *499:A *499:B 0
22 *499:A *500:B 0
23 *511:A *511:B 0
24 *24:15 *32:25 0
25 *24:30 *32:5 0
*RES
1 *498:Y *32:5 17.2286 
2 *32:5 *32:7 0.732143 
3 *32:7 *511:B 33.6036 
4 *32:7 *510:B 9.3 
5 *32:5 *32:25 9.77679 
6 *32:25 *500:B 10.8804 
7 *32:25 *499:B 30.4161 
*END

*D_NET *33 0.000663431
*CONN
*I *529:A1 I *D sky130_fd_sc_hd__o21a_1
*I *528:A I *D sky130_fd_sc_hd__or3_1
*I *499:Y O *D sky130_fd_sc_hd__nor2_1
*CAP
1 *529:A1 0
2 *528:A 0.000242998
3 *499:Y 8.87178e-05
4 *33:10 0.000331716
5 *528:A *528:B 0
6 *528:A *529:B1 0
7 *499:B *33:10 0
*RES
1 *499:Y *33:10 29.4786 
2 *33:10 *528:A 14.3714 
3 *33:10 *529:A1 9.3 
*END

*D_NET *34 0.00129986
*CONN
*I *507:B1 I *D sky130_fd_sc_hd__a21oi_1
*I *508:B1 I *D sky130_fd_sc_hd__a21o_1
*I *509:A I *D sky130_fd_sc_hd__nand3_1
*I *500:Y O *D sky130_fd_sc_hd__xnor2_2
*CAP
1 *507:B1 0
2 *508:B1 0.000266527
3 *509:A 0.000242998
4 *500:Y 4.23535e-05
5 *34:18 0.000364581
6 *34:5 0.000383405
7 *508:B1 *507:A1 0
8 *508:B1 *507:A2 0
9 *508:B1 *85:25 0
10 *34:18 *40:12 0
11 *34:18 *85:25 0
12 *499:A *34:18 0
13 *32:25 *509:A 0
14 *32:25 *34:5 0
*RES
1 *500:Y *34:5 10.2464 
2 *34:5 *509:A 14.3714 
3 *34:5 *34:18 20.5536 
4 *34:18 *508:B1 14.925 
5 *34:18 *507:B1 9.3 
*END

*D_NET *35 0.00138354
*CONN
*I *505:C1 I *D sky130_fd_sc_hd__a221o_2
*I *506:B I *D sky130_fd_sc_hd__nand3_2
*I *501:Y O *D sky130_fd_sc_hd__nand2_1
*CAP
1 *505:C1 0
2 *506:B 0.00033265
3 *501:Y 0.00035912
4 *35:8 0.00069177
5 *506:B *506:C 0
6 *506:B *513:A1 0
7 *506:B *513:A2 0
8 *506:B *36:10 0
9 *506:B *36:20 0
10 *35:8 *501:B 0
11 *35:8 *513:A2 0
12 *35:8 *37:6 0
13 *35:8 *84:18 0
14 *35:8 *84:35 0
15 *27:26 *506:B 0
16 *27:31 *506:B 0
17 *27:31 *35:8 0
*RES
1 *501:Y *35:8 26.6036 
2 *35:8 *506:B 25.6393 
3 *35:8 *505:C1 18.3 
*END

*D_NET *36 0.00177885
*CONN
*I *505:B2 I *D sky130_fd_sc_hd__a221o_2
*I *504:B I *D sky130_fd_sc_hd__nand3_2
*I *506:C I *D sky130_fd_sc_hd__nand3_2
*I *513:A1 I *D sky130_fd_sc_hd__a21o_1
*I *502:X O *D sky130_fd_sc_hd__a22o_2
*CAP
1 *505:B2 8.57765e-05
2 *504:B 0.000145757
3 *506:C 0.000114654
4 *513:A1 3.97699e-05
5 *502:X 0.00018396
6 *36:20 0.000519238
7 *36:10 0.00035928
8 *36:7 0.000330419
9 *504:B *40:8 0
10 *504:B *80:45 0
11 *505:B2 *505:A1 0
12 *505:B2 *80:33 0
13 *506:C *40:8 0
14 *513:A1 *513:A2 0
15 *36:7 *502:A2 0
16 *36:7 *505:A1 0
17 *36:7 *80:33 0
18 *36:10 *513:A2 0
19 *506:B *506:C 0
20 *506:B *513:A1 0
21 *506:B *36:10 0
22 *506:B *36:20 0
23 *27:20 *36:20 0
24 *27:31 *504:B 0
25 *27:31 *513:A1 0
*RES
1 *502:X *36:7 13.1393 
2 *36:7 *36:10 10.6429 
3 *36:10 *513:A1 19.3357 
4 *36:10 *36:20 14.4643 
5 *36:20 *506:C 11.6929 
6 *36:20 *504:B 31.1393 
7 *36:7 *505:B2 11.2152 
*END

*D_NET *37 0.00141428
*CONN
*I *504:C I *D sky130_fd_sc_hd__nand3_2
*I *522:B1_N I *D sky130_fd_sc_hd__a21boi_2
*I *513:A2 I *D sky130_fd_sc_hd__a21o_1
*I *503:Y O *D sky130_fd_sc_hd__nand4_4
*CAP
1 *504:C 0.000117076
2 *522:B1_N 0
3 *513:A2 0.00018445
4 *503:Y 2.57133e-05
5 *37:16 0.000496974
6 *37:6 0.000590061
7 *504:C *55:5 0
8 *504:C *81:59 0
9 *513:A2 *503:C 0
10 *513:A2 *80:28 0
11 *37:6 *503:C 0
12 *37:6 *84:18 0
13 *37:16 *55:5 0
14 *37:16 *81:49 0
15 *37:16 *81:59 0
16 *506:B *513:A2 0
17 *513:A1 *513:A2 0
18 *522:A2 *504:C 0
19 *35:8 *513:A2 0
20 *35:8 *37:6 0
21 *36:10 *513:A2 0
*RES
1 *503:Y *37:6 19.0321 
2 *37:6 *513:A2 22.9786 
3 *37:6 *37:16 16.9286 
4 *37:16 *522:B1_N 9.3 
5 *37:16 *504:C 30.1929 
*END

*D_NET *38 0.00205918
*CONN
*I *515:A1 I *D sky130_fd_sc_hd__a31o_1
*I *514:A I *D sky130_fd_sc_hd__nand4_2
*I *519:B2 I *D sky130_fd_sc_hd__a22o_1
*I *504:Y O *D sky130_fd_sc_hd__nand3_2
*CAP
1 *515:A1 6.58832e-05
2 *514:A 0.000134333
3 *519:B2 0.000207126
4 *504:Y 0.000468144
5 *38:17 0.000495561
6 *38:8 0.000688129
7 *514:A *45:7 0
8 *515:A1 *515:A3 0
9 *519:B2 *514:C 0
10 *519:B2 *514:D 0
11 *38:8 *515:A2 0
12 *38:8 *515:B1 0
13 *38:8 *39:8 0
14 *38:8 *47:8 0
15 *38:17 *514:C 0
16 *38:17 *515:A2 0
17 *38:17 *515:B1 0
18 *38:17 *45:7 0
19 *493:B1 *519:B2 0
20 *511:B *514:A 0
21 *27:20 *519:B2 0
22 *27:31 *38:8 0
*RES
1 *504:Y *38:8 30.0143 
2 *38:8 *38:17 12.75 
3 *38:17 *519:B2 31.9607 
4 *38:17 *514:A 12.3179 
5 *38:8 *515:A1 19.675 
*END

*D_NET *39 0.00235222
*CONN
*I *509:B I *D sky130_fd_sc_hd__nand3_1
*I *508:A1 I *D sky130_fd_sc_hd__a21o_1
*I *507:A1 I *D sky130_fd_sc_hd__a21oi_1
*I *505:X O *D sky130_fd_sc_hd__a221o_2
*CAP
1 *509:B 0
2 *508:A1 0
3 *507:A1 0.00016428
4 *505:X 0.00086749
5 *39:16 0.000308618
6 *39:8 0.00101183
7 *507:A1 *507:A2 0
8 *39:8 *497:B 0
9 *39:8 *40:8 0
10 *39:8 *40:12 0
11 *39:8 *49:8 0
12 *39:8 *80:45 0
13 *39:16 *40:12 0
14 *39:16 *49:8 0
15 *508:B1 *507:A1 0
16 *24:10 *39:8 0
17 *38:8 *39:8 0
*RES
1 *505:X *39:8 39.1929 
2 *39:8 *39:16 12.8214 
3 *39:16 *507:A1 12.7286 
4 *39:16 *508:A1 9.3 
5 *39:8 *509:B 18.3 
*END

*D_NET *40 0.00189397
*CONN
*I *509:C I *D sky130_fd_sc_hd__nand3_1
*I *507:A2 I *D sky130_fd_sc_hd__a21oi_1
*I *508:A2 I *D sky130_fd_sc_hd__a21o_1
*I *506:Y O *D sky130_fd_sc_hd__nand3_2
*CAP
1 *509:C 0
2 *507:A2 0.000104386
3 *508:A2 0
4 *506:Y 0.000718833
5 *40:12 0.000228153
6 *40:8 0.000842599
7 *40:8 *497:A 0
8 *40:8 *497:B 0
9 *40:8 *85:25 0
10 *40:12 *85:25 0
11 *504:B *40:8 0
12 *506:C *40:8 0
13 *507:A1 *507:A2 0
14 *508:B1 *507:A2 0
15 *34:18 *40:12 0
16 *39:8 *40:8 0
17 *39:8 *40:12 0
18 *39:16 *40:12 0
*RES
1 *506:Y *40:8 35.7286 
2 *40:8 *40:12 12.1607 
3 *40:12 *508:A2 9.3 
4 *40:12 *507:A2 11.4786 
5 *40:8 *509:C 18.3 
*END

*D_NET *41 0.0010297
*CONN
*I *528:B I *D sky130_fd_sc_hd__or3_1
*I *529:A2 I *D sky130_fd_sc_hd__o21a_1
*I *507:Y O *D sky130_fd_sc_hd__a21oi_1
*CAP
1 *528:B 0.000203639
2 *529:A2 0
3 *507:Y 0.000311213
4 *41:14 0.000514852
5 *528:B *62:8 0
6 *41:14 *85:25 0
7 *499:B *41:14 0
8 *528:A *528:B 0
*RES
1 *507:Y *41:14 34.425 
2 *41:14 *529:A2 9.3 
3 *41:14 *528:B 13.55 
*END

*D_NET *42 0.000471575
*CONN
*I *517:A1 I *D sky130_fd_sc_hd__a21o_1
*I *516:A I *D sky130_fd_sc_hd__and3_1
*I *508:X O *D sky130_fd_sc_hd__a21o_1
*CAP
1 *517:A1 0
2 *516:A 0.000172749
3 *508:X 6.30388e-05
4 *42:8 0.000235788
5 *516:A *516:B 0
6 *516:A *516:C 0
7 *516:A *43:8 0
8 *516:A *49:8 0
9 *42:8 *43:8 0
10 *42:8 *49:8 0
11 *42:8 *85:25 0
12 *24:30 *516:A 0
*RES
1 *508:X *42:8 19.8714 
2 *42:8 *516:A 22.6036 
3 *42:8 *517:A1 18.3 
*END

*D_NET *43 0.000796182
*CONN
*I *517:A2 I *D sky130_fd_sc_hd__a21o_1
*I *516:B I *D sky130_fd_sc_hd__and3_1
*I *509:Y O *D sky130_fd_sc_hd__nand3_1
*CAP
1 *517:A2 0
2 *516:B 0.000159447
3 *509:Y 0.000238644
4 *43:8 0.000398091
5 *516:B *516:C 0
6 *43:8 *49:8 0
7 *516:A *516:B 0
8 *516:A *43:8 0
9 *24:30 *516:B 0
10 *24:30 *43:8 0
11 *32:25 *43:8 0
12 *42:8 *43:8 0
*RES
1 *509:Y *43:8 24.1393 
2 *43:8 *516:B 22.0143 
3 *43:8 *517:A2 18.3 
*END

*D_NET *44 0.000862075
*CONN
*I *515:B1 I *D sky130_fd_sc_hd__a31o_1
*I *510:Y O *D sky130_fd_sc_hd__nor2_1
*CAP
1 *515:B1 0.000431037
2 *510:Y 0.000431037
3 *515:B1 *515:A2 0
4 *515:B1 *515:A3 0
5 *515:B1 *519:A1 0
6 *515:B1 *48:6 0
7 *515:B1 *49:8 0
8 *24:10 *515:B1 0
9 *24:30 *515:B1 0
10 *38:8 *515:B1 0
11 *38:17 *515:B1 0
*RES
1 *510:Y *515:B1 46.475 
*END

*D_NET *45 0.000765531
*CONN
*I *514:B I *D sky130_fd_sc_hd__nand4_2
*I *519:A1 I *D sky130_fd_sc_hd__a22o_1
*I *511:X O *D sky130_fd_sc_hd__or2_1
*CAP
1 *514:B 0
2 *519:A1 0.000198806
3 *511:X 0.00018396
4 *45:7 0.000382765
5 *519:A1 *46:9 0
6 *519:A1 *48:6 0
7 *511:A *45:7 0
8 *511:B *519:A1 0
9 *511:B *45:7 0
10 *514:A *45:7 0
11 *515:B1 *519:A1 0
12 *24:10 *519:A1 0
13 *24:15 *519:A1 0
14 *24:30 *519:A1 0
15 *32:5 *519:A1 0
16 *38:17 *45:7 0
*RES
1 *511:X *45:7 13.1393 
2 *45:7 *519:A1 31.8357 
3 *45:7 *514:B 9.3 
*END

*D_NET *46 0.00127352
*CONN
*I *519:A2 I *D sky130_fd_sc_hd__a22o_1
*I *515:A2 I *D sky130_fd_sc_hd__a31o_1
*I *514:C I *D sky130_fd_sc_hd__nand4_2
*I *512:X O *D sky130_fd_sc_hd__a22o_1
*CAP
1 *519:A2 0
2 *515:A2 0.000121024
3 *514:C 2.56688e-05
4 *512:X 0.000401289
5 *46:12 0.000235472
6 *46:9 0.000490068
7 *515:A2 *47:8 0
8 *515:A2 *47:10 0
9 *515:A2 *48:6 0
10 *46:9 *498:A 0
11 *46:12 *519:B1 0
12 *46:12 *48:6 0
13 *515:B1 *515:A2 0
14 *519:A1 *46:9 0
15 *519:B2 *514:C 0
16 *24:30 *46:9 0
17 *32:5 *46:9 0
18 *32:7 *46:9 0
19 *38:8 *515:A2 0
20 *38:17 *514:C 0
21 *38:17 *515:A2 0
*RES
1 *512:X *46:9 17.675 
2 *46:9 *46:12 11.25 
3 *46:12 *514:C 18.8357 
4 *46:12 *515:A2 21.5143 
5 *46:9 *519:A2 9.3 
*END

*D_NET *47 0.00138544
*CONN
*I *515:A3 I *D sky130_fd_sc_hd__a31o_1
*I *514:D I *D sky130_fd_sc_hd__nand4_2
*I *519:B1 I *D sky130_fd_sc_hd__a22o_1
*I *513:X O *D sky130_fd_sc_hd__a21o_1
*CAP
1 *515:A3 0.000133478
2 *514:D 2.56688e-05
3 *519:B1 7.46886e-05
4 *513:X 0.000386547
5 *47:10 0.000172697
6 *47:8 0.000592365
7 *515:A1 *515:A3 0
8 *515:A2 *47:8 0
9 *515:A2 *47:10 0
10 *515:B1 *515:A3 0
11 *519:B2 *514:D 0
12 *27:20 *519:B1 0
13 *27:20 *47:8 0
14 *27:20 *47:10 0
15 *27:26 *47:8 0
16 *38:8 *47:8 0
17 *46:12 *519:B1 0
*RES
1 *513:X *47:8 27.8893 
2 *47:8 *47:10 1.94643 
3 *47:10 *519:B1 20.2464 
4 *47:10 *514:D 18.8357 
5 *47:8 *515:A3 21.3536 
*END

*D_NET *48 0.00152954
*CONN
*I *539:A1 I *D sky130_fd_sc_hd__a21oi_1
*I *520:B I *D sky130_fd_sc_hd__and3_1
*I *514:Y O *D sky130_fd_sc_hd__nand4_2
*CAP
1 *539:A1 0
2 *520:B 0.000188794
3 *514:Y 0.000575978
4 *48:6 0.000764772
5 *520:B *520:C 0
6 *520:B *53:6 0
7 *48:6 *53:6 0
8 *495:B *520:B 0
9 *511:B *48:6 0
10 *515:A2 *48:6 0
11 *515:B1 *48:6 0
12 *519:A1 *48:6 0
13 *539:B1 *520:B 0
14 *24:30 *520:B 0
15 *24:30 *48:6 0