*SPEF "ieee 1481-1999"
*DESIGN "tt2_tholin_diceroll"
*DATE "11:11:11 Fri 11 11, 1111"
*VENDOR "OpenRCX"
*PROGRAM "Parallel Extraction"
*VERSION "1.0"
*DESIGN_FLOW "NAME_SCOPE LOCAL" "PIN_CAP NONE"
*DIVIDER /
*DELIMITER :
*BUS_DELIMITER []
*T_UNIT 1 NS
*C_UNIT 1 PF
*R_UNIT 1 OHM
*L_UNIT 1 HENRY

*NAME_MAP
*1 clk
*2 io_in
*3 io_out[0]
*4 io_out[1]
*5 io_out[2]
*6 io_out[3]
*7 io_out[4]
*8 io_out[5]
*9 io_out[6]
*10 io_out[7]
*11 rst
*14 _000_
*15 _001_
*16 _002_
*17 _003_
*18 _004_
*19 _005_
*20 _006_
*21 _007_
*22 _008_
*23 _009_
*24 _010_
*25 _011_
*26 _012_
*27 _013_
*28 _014_
*29 _015_
*30 _016_
*31 _017_
*32 _018_
*33 _019_
*34 _020_
*35 _021_
*36 _022_
*37 _023_
*38 _024_
*39 _025_
*40 _026_
*41 _027_
*42 _028_
*43 _029_
*44 _030_
*45 _031_
*46 _032_
*47 _033_
*48 _034_
*49 _035_
*50 _036_
*51 _037_
*52 _038_
*53 _039_
*54 _040_
*55 _041_
*56 _042_
*57 _043_
*58 _044_
*59 _045_
*60 _046_
*61 _047_
*62 _048_
*63 _049_
*64 _050_
*65 _051_
*66 _052_
*67 _053_
*68 _054_
*69 _055_
*70 _056_
*71 _057_
*72 _058_
*73 _059_
*74 _060_
*75 _061_
*76 _062_
*77 _063_
*78 _064_
*79 _065_
*80 _066_
*81 _067_
*82 _068_
*83 _069_
*84 _070_
*85 _071_
*86 _072_
*87 _073_
*88 _074_
*89 _075_
*90 _076_
*91 _077_
*92 _078_
*93 _079_
*94 _080_
*95 _081_
*96 _082_
*97 _083_
*98 _084_
*99 _085_
*100 _086_
*101 _087_
*102 _088_
*103 _089_
*104 _090_
*105 _091_
*106 _092_
*107 _093_
*108 _094_
*109 _095_
*110 _096_
*111 _097_
*112 _098_
*113 _099_
*114 _100_
*115 _101_
*116 _102_
*117 _103_
*118 _104_
*119 _105_
*120 _106_
*121 _107_
*122 _108_
*123 _109_
*124 _110_
*125 _111_
*126 _112_
*127 _113_
*128 _114_
*129 _115_
*130 _116_
*131 _117_
*132 _118_
*133 _119_
*134 _120_
*135 _121_
*136 _122_
*137 _123_
*138 _124_
*139 _125_
*140 _126_
*141 _127_
*142 _128_
*143 _129_
*144 _130_
*145 _131_
*146 _132_
*147 _133_
*148 _134_
*149 _135_
*150 _136_
*151 _137_
*152 _138_
*153 _139_
*154 _140_
*155 _141_
*156 _142_
*157 _143_
*158 _144_
*159 _145_
*160 _146_
*161 _147_
*162 _148_
*163 _149_
*164 _150_
*165 _151_
*166 _152_
*167 _153_
*168 _154_
*169 _155_
*170 _156_
*171 _157_
*172 _158_
*173 _159_
*174 _160_
*175 _161_
*176 _162_
*177 _163_
*178 _164_
*179 _165_
*180 _166_
*181 _167_
*182 _168_
*183 _169_
*184 _170_
*185 _171_
*186 _172_
*187 _173_
*188 _174_
*189 _175_
*190 _176_
*191 _177_
*192 _178_
*193 _179_
*194 _180_
*195 clknet_0_clk
*196 clknet_2_0__leaf_clk
*197 clknet_2_1__leaf_clk
*198 clknet_2_2__leaf_clk
*199 clknet_2_3__leaf_clk
*200 dice\.bcd\[0\]
*201 dice\.bcd\[1\]
*202 dice\.bcd\[2\]
*203 dice\.clkdiv\[0\]
*204 dice\.clkdiv\[1\]
*205 dice\.clkdiv\[2\]
*206 dice\.clkdiv\[3\]
*207 dice\.clkdiv\[4\]
*208 dice\.clkdiv\[5\]
*209 dice\.clkdiv\[6\]
*210 dice\.clkdiv\[7\]
*211 dice\.counter\[0\]
*212 dice\.counter\[10\]
*213 dice\.counter\[11\]
*214 dice\.counter\[12\]
*215 dice\.counter\[13\]
*216 dice\.counter\[14\]
*217 dice\.counter\[15\]
*218 dice\.counter\[1\]
*219 dice\.counter\[2\]
*220 dice\.counter\[3\]
*221 dice\.counter\[4\]
*222 dice\.counter\[5\]
*223 dice\.counter\[6\]
*224 dice\.counter\[7\]
*225 dice\.counter\[8\]
*226 dice\.counter\[9\]
*227 dice\.lfsr\[0\]
*228 dice\.lfsr\[10\]
*229 dice\.lfsr\[11\]
*230 dice\.lfsr\[12\]
*231 dice\.lfsr\[13\]
*232 dice\.lfsr\[14\]
*233 dice\.lfsr\[15\]
*234 dice\.lfsr\[1\]
*235 dice\.lfsr\[2\]
*236 dice\.lfsr\[3\]
*237 dice\.lfsr\[4\]
*238 dice\.lfsr\[5\]
*239 dice\.lfsr\[6\]
*240 dice\.lfsr\[7\]
*241 dice\.lfsr\[8\]
*242 dice\.lfsr\[9\]
*243 dice\.r_counter\[0\]
*244 dice\.r_counter\[1\]
*245 dice\.r_counter\[2\]
*246 net1
*247 net10
*248 net11
*249 net12
*250 net13
*251 net14
*252 net15
*253 net16
*254 net17
*255 net18
*256 net19
*257 net2
*258 net20
*259 net3
*260 net4
*261 net5
*262 net6
*263 net7
*264 net8
*265 net9
*266 FILLER_0_111
*267 FILLER_0_113
*268 FILLER_0_12
*269 FILLER_0_121
*270 FILLER_0_128
*271 FILLER_0_141
*272 FILLER_0_149
*273 FILLER_0_157
*274 FILLER_0_165
*275 FILLER_0_169
*276 FILLER_0_177
*277 FILLER_0_186
*278 FILLER_0_194
*279 FILLER_0_197
*280 FILLER_0_203
*281 FILLER_0_210
*282 FILLER_0_24
*283 FILLER_0_29
*284 FILLER_0_3
*285 FILLER_0_41
*286 FILLER_0_53
*287 FILLER_0_57
*288 FILLER_0_63
*289 FILLER_0_70
*290 FILLER_0_82
*291 FILLER_0_85
*292 FILLER_0_99
*293 FILLER_10_102
*294 FILLER_10_111
*295 FILLER_10_119
*296 FILLER_10_126
*297 FILLER_10_13
*298 FILLER_10_134
*299 FILLER_10_141
*300 FILLER_10_154
*301 FILLER_10_170
*302 FILLER_10_179
*303 FILLER_10_187
*304 FILLER_10_194
*305 FILLER_10_197
*306 FILLER_10_204
*307 FILLER_10_25
*308 FILLER_10_29
*309 FILLER_10_3
*310 FILLER_10_40
*311 FILLER_10_50
*312 FILLER_10_56
*313 FILLER_10_65
*314 FILLER_10_73
*315 FILLER_10_80
*316 FILLER_10_85
*317 FILLER_10_94
*318 FILLER_11_106
*319 FILLER_11_113
*320 FILLER_11_126
*321 FILLER_11_138
*322 FILLER_11_154
*323 FILLER_11_16
*324 FILLER_11_166
*325 FILLER_11_169
*326 FILLER_11_178
*327 FILLER_11_186
*328 FILLER_11_192
*329 FILLER_11_196
*330 FILLER_11_205
*331 FILLER_11_211
*332 FILLER_11_28
*333 FILLER_11_3
*334 FILLER_11_39
*335 FILLER_11_43
*336 FILLER_11_47
*337 FILLER_11_54
*338 FILLER_11_57
*339 FILLER_11_75
*340 FILLER_11_82
*341 FILLER_11_9
*342 FILLER_11_94
*343 FILLER_12_109
*344 FILLER_12_121
*345 FILLER_12_133
*346 FILLER_12_139
*347 FILLER_12_141
*348 FILLER_12_145
*349 FILLER_12_152
*350 FILLER_12_164
*351 FILLER_12_18
*352 FILLER_12_180
*353 FILLER_12_192
*354 FILLER_12_197
*355 FILLER_12_202
*356 FILLER_12_210
*357 FILLER_12_26
*358 FILLER_12_29
*359 FILLER_12_3
*360 FILLER_12_47
*361 FILLER_12_75
*362 FILLER_12_82
*363 FILLER_12_85
*364 FILLER_12_97
*365 FILLER_13_106
*366 FILLER_13_113
*367 FILLER_13_133
*368 FILLER_13_145
*369 FILLER_13_15
*370 FILLER_13_158
*371 FILLER_13_166
*372 FILLER_13_169
*373 FILLER_13_183
*374 FILLER_13_195
*375 FILLER_13_202
*376 FILLER_13_209
*377 FILLER_13_27
*378 FILLER_13_3
*379 FILLER_13_35
*380 FILLER_13_54
*381 FILLER_13_57
*382 FILLER_13_65
*383 FILLER_13_82
*384 FILLER_14_11
*385 FILLER_14_113
*386 FILLER_14_133
*387 FILLER_14_139
*388 FILLER_14_141
*389 FILLER_14_155
*390 FILLER_14_167
*391 FILLER_14_173
*392 FILLER_14_181
*393 FILLER_14_189
*394 FILLER_14_194
*395 FILLER_14_197
*396 FILLER_14_207
*397 FILLER_14_211
*398 FILLER_14_23
*399 FILLER_14_27
*400 FILLER_14_29
*401 FILLER_14_3
*402 FILLER_14_41
*403 FILLER_14_65
*404 FILLER_14_77
*405 FILLER_14_83
*406 FILLER_14_85
*407 FILLER_15_105
*408 FILLER_15_111
*409 FILLER_15_113
*410 FILLER_15_125
*411 FILLER_15_137
*412 FILLER_15_14
*413 FILLER_15_147
*414 FILLER_15_158
*415 FILLER_15_166
*416 FILLER_15_169
*417 FILLER_15_178
*418 FILLER_15_187
*419 FILLER_15_195
*420 FILLER_15_200
*421 FILLER_15_26
*422 FILLER_15_3
*423 FILLER_15_48
*424 FILLER_15_57
*425 FILLER_15_69
*426 FILLER_15_93
*427 FILLER_16_103
*428 FILLER_16_11
*429 FILLER_16_115
*430 FILLER_16_133
*431 FILLER_16_139
*432 FILLER_16_141
*433 FILLER_16_156
*434 FILLER_16_168
*435 FILLER_16_180
*436 FILLER_16_188
*437 FILLER_16_194
*438 FILLER_16_197
*439 FILLER_16_206
*440 FILLER_16_23
*441 FILLER_16_27
*442 FILLER_16_29
*443 FILLER_16_3
*444 FILLER_16_48
*445 FILLER_16_56
*446 FILLER_16_7
*447 FILLER_16_74
*448 FILLER_16_82
*449 FILLER_16_85
*450 FILLER_17_102
*451 FILLER_17_110
*452 FILLER_17_113
*453 FILLER_17_134
*454 FILLER_17_14
*455 FILLER_17_146
*456 FILLER_17_161
*457 FILLER_17_167
*458 FILLER_17_169
*459 FILLER_17_178
*460 FILLER_17_187
*461 FILLER_17_195
*462 FILLER_17_203
*463 FILLER_17_211
*464 FILLER_17_26
*465 FILLER_17_3
*466 FILLER_17_49
*467 FILLER_17_55
*468 FILLER_17_57
*469 FILLER_17_79
*470 FILLER_18_111
*471 FILLER_18_123
*472 FILLER_18_135
*473 FILLER_18_139
*474 FILLER_18_14
*475 FILLER_18_141
*476 FILLER_18_155
*477 FILLER_18_163
*478 FILLER_18_168
*479 FILLER_18_179
*480 FILLER_18_189
*481 FILLER_18_195
*482 FILLER_18_197
*483 FILLER_18_206
*484 FILLER_18_21
*485 FILLER_18_27
*486 FILLER_18_29
*487 FILLER_18_3
*488 FILLER_18_50
*489 FILLER_18_62
*490 FILLER_18_74
*491 FILLER_18_82
*492 FILLER_18_85
*493 FILLER_18_93
*494 FILLER_19_111
*495 FILLER_19_113
*496 FILLER_19_12
*497 FILLER_19_132
*498 FILLER_19_144
*499 FILLER_19_153
*500 FILLER_19_165
*501 FILLER_19_169
*502 FILLER_19_177
*503 FILLER_19_184
*504 FILLER_19_200
*505 FILLER_19_208
*506 FILLER_19_24
*507 FILLER_19_3
*508 FILLER_19_36
*509 FILLER_19_48
*510 FILLER_19_57
*511 FILLER_19_7
*512 FILLER_19_75
*513 FILLER_19_87
*514 FILLER_19_99
*515 FILLER_1_105
*516 FILLER_1_111
*517 FILLER_1_113
*518 FILLER_1_125
*519 FILLER_1_137
*520 FILLER_1_149
*521 FILLER_1_15
*522 FILLER_1_161
*523 FILLER_1_167
*524 FILLER_1_169
*525 FILLER_1_181
*526 FILLER_1_193
*527 FILLER_1_205
*528 FILLER_1_211
*529 FILLER_1_27
*530 FILLER_1_3
*531 FILLER_1_39
*532 FILLER_1_51
*533 FILLER_1_55
*534 FILLER_1_57
*535 FILLER_1_69
*536 FILLER_1_81
*537 FILLER_1_93
*538 FILLER_20_109
*539 FILLER_20_115
*540 FILLER_20_132
*541 FILLER_20_14
*542 FILLER_20_141
*543 FILLER_20_158
*544 FILLER_20_170
*545 FILLER_20_180
*546 FILLER_20_192
*547 FILLER_20_197
*548 FILLER_20_206
*549 FILLER_20_23
*550 FILLER_20_27
*551 FILLER_20_29
*552 FILLER_20_3
*553 FILLER_20_47
*554 FILLER_20_7
*555 FILLER_20_75
*556 FILLER_20_83
*557 FILLER_20_85
*558 FILLER_20_97
*559 FILLER_21_110
*560 FILLER_21_113
*561 FILLER_21_132
*562 FILLER_21_144
*563 FILLER_21_156
*564 FILLER_21_16
*565 FILLER_21_169
*566 FILLER_21_179
*567 FILLER_21_192
*568 FILLER_21_203
*569 FILLER_21_211
*570 FILLER_21_28
*571 FILLER_21_3
*572 FILLER_21_50
*573 FILLER_21_57
*574 FILLER_21_69
*575 FILLER_21_87
*576 FILLER_22_110
*577 FILLER_22_12
*578 FILLER_22_122
*579 FILLER_22_134
*580 FILLER_22_141
*581 FILLER_22_149
*582 FILLER_22_156
*583 FILLER_22_168
*584 FILLER_22_178
*585 FILLER_22_188
*586 FILLER_22_197
*587 FILLER_22_206
*588 FILLER_22_24
*589 FILLER_22_29
*590 FILLER_22_3
*591 FILLER_22_47
*592 FILLER_22_69
*593 FILLER_22_7
*594 FILLER_22_81
*595 FILLER_22_85
*596 FILLER_23_102
*597 FILLER_23_110
*598 FILLER_23_113
*599 FILLER_23_133
*600 FILLER_23_145
*601 FILLER_23_15
*602 FILLER_23_155
*603 FILLER_23_164
*604 FILLER_23_169
*605 FILLER_23_177
*606 FILLER_23_186
*607 FILLER_23_199
*608 FILLER_23_208
*609 FILLER_23_27
*610 FILLER_23_3
*611 FILLER_23_39
*612 FILLER_23_51
*613 FILLER_23_55
*614 FILLER_23_57
*615 FILLER_23_78
*616 FILLER_24_121
*617 FILLER_24_133
*618 FILLER_24_139
*619 FILLER_24_141
*620 FILLER_24_153
*621 FILLER_24_16
*622 FILLER_24_165
*623 FILLER_24_173
*624 FILLER_24_179
*625 FILLER_24_186
*626 FILLER_24_194
*627 FILLER_24_197
*628 FILLER_24_207
*629 FILLER_24_211
*630 FILLER_24_29
*631 FILLER_24_3
*632 FILLER_24_41
*633 FILLER_24_65
*634 FILLER_24_77
*635 FILLER_24_83
*636 FILLER_24_85
*637 FILLER_24_97
*638 FILLER_25_105
*639 FILLER_25_111
*640 FILLER_25_113
*641 FILLER_25_117
*642 FILLER_25_134
*643 FILLER_25_14
*644 FILLER_25_155
*645 FILLER_25_161
*646 FILLER_25_166
*647 FILLER_25_169
*648 FILLER_25_180
*649 FILLER_25_192
*650 FILLER_25_196
*651 FILLER_25_202
*652 FILLER_25_210
*653 FILLER_25_26
*654 FILLER_25_3
*655 FILLER_25_46
*656 FILLER_25_54
*657 FILLER_25_57
*658 FILLER_25_7
*659 FILLER_25_75
*660 FILLER_25_87
*661 FILLER_26_105
*662 FILLER_26_12
*663 FILLER_26_123
*664 FILLER_26_135
*665 FILLER_26_139
*666 FILLER_26_141
*667 FILLER_26_149
*668 FILLER_26_155
*669 FILLER_26_163
*670 FILLER_26_167
*671 FILLER_26_172
*672 FILLER_26_185
*673 FILLER_26_194
*674 FILLER_26_197
*675 FILLER_26_207
*676 FILLER_26_211
*677 FILLER_26_24
*678 FILLER_26_29
*679 FILLER_26_3
*680 FILLER_26_47
*681 FILLER_26_59
*682 FILLER_26_7
*683 FILLER_26_71
*684 FILLER_26_83
*685 FILLER_26_85
*686 FILLER_26_97
*687 FILLER_27_103
*688 FILLER_27_111
*689 FILLER_27_113
*690 FILLER_27_135
*691 FILLER_27_147
*692 FILLER_27_15
*693 FILLER_27_154
*694 FILLER_27_161
*695 FILLER_27_167
*696 FILLER_27_169
*697 FILLER_27_173
*698 FILLER_27_178
*699 FILLER_27_190
*700 FILLER_27_202
*701 FILLER_27_210
*702 FILLER_27_24
*703 FILLER_27_3
*704 FILLER_27_36
*705 FILLER_27_48
*706 FILLER_27_57
*707 FILLER_27_75
*708 FILLER_27_9
*709 FILLER_28_108
*710 FILLER_28_120
*711 FILLER_28_132
*712 FILLER_28_141
*713 FILLER_28_149
*714 FILLER_28_155
*715 FILLER_28_16
*716 FILLER_28_167
*717 FILLER_28_175
*718 FILLER_28_180
*719 FILLER_28_192
*720 FILLER_28_197
*721 FILLER_28_209
*722 FILLER_28_29
*723 FILLER_28_3
*724 FILLER_28_47
*725 FILLER_28_59
*726 FILLER_28_63
*727 FILLER_28_80
*728 FILLER_28_85
*729 FILLER_28_91
*730 FILLER_29_102
*731 FILLER_29_11
*732 FILLER_29_110
*733 FILLER_29_113
*734 FILLER_29_117
*735 FILLER_29_134
*736 FILLER_29_151
*737 FILLER_29_155
*738 FILLER_29_163
*739 FILLER_29_167
*740 FILLER_29_169
*741 FILLER_29_17
*742 FILLER_29_176
*743 FILLER_29_185
*744 FILLER_29_197
*745 FILLER_29_209
*746 FILLER_29_3
*747 FILLER_29_45
*748 FILLER_29_53
*749 FILLER_29_57
*750 FILLER_29_70
*751 FILLER_29_90
*752 FILLER_2_109
*753 FILLER_2_121
*754 FILLER_2_133
*755 FILLER_2_139
*756 FILLER_2_141
*757 FILLER_2_15
*758 FILLER_2_153
*759 FILLER_2_165
*760 FILLER_2_177
*761 FILLER_2_189
*762 FILLER_2_195
*763 FILLER_2_197
*764 FILLER_2_209
*765 FILLER_2_27
*766 FILLER_2_29
*767 FILLER_2_3
*768 FILLER_2_41
*769 FILLER_2_53
*770 FILLER_2_65
*771 FILLER_2_77
*772 FILLER_2_83
*773 FILLER_2_85
*774 FILLER_2_97
*775 FILLER_30_106
*776 FILLER_30_114
*777 FILLER_30_132
*778 FILLER_30_141
*779 FILLER_30_158
*780 FILLER_30_16
*781 FILLER_30_170
*782 FILLER_30_176
*783 FILLER_30_188
*784 FILLER_30_197
*785 FILLER_30_209
*786 FILLER_30_25
*787 FILLER_30_29
*788 FILLER_30_3
*789 FILLER_30_41
*790 FILLER_30_49
*791 FILLER_30_66
*792 FILLER_30_78
*793 FILLER_30_85
*794 FILLER_31_105
*795 FILLER_31_110
*796 FILLER_31_113
*797 FILLER_31_132
*798 FILLER_31_141
*799 FILLER_31_15
*800 FILLER_31_150
*801 FILLER_31_162
*802 FILLER_31_169
*803 FILLER_31_175
*804 FILLER_31_184
*805 FILLER_31_192
*806 FILLER_31_197
*807 FILLER_31_203
*808 FILLER_31_211
*809 FILLER_31_27
*810 FILLER_31_29
*811 FILLER_31_3
*812 FILLER_31_47
*813 FILLER_31_55
*814 FILLER_31_57
*815 FILLER_31_69
*816 FILLER_31_78
*817 FILLER_31_85
*818 FILLER_31_97
*819 FILLER_3_105
*820 FILLER_3_111
*821 FILLER_3_113
*822 FILLER_3_125
*823 FILLER_3_137
*824 FILLER_3_149
*825 FILLER_3_15
*826 FILLER_3_161
*827 FILLER_3_167
*828 FILLER_3_169
*829 FILLER_3_181
*830 FILLER_3_193
*831 FILLER_3_205
*832 FILLER_3_211
*833 FILLER_3_27
*834 FILLER_3_3
*835 FILLER_3_33
*836 FILLER_3_47
*837 FILLER_3_55
*838 FILLER_3_57
*839 FILLER_3_69
*840 FILLER_3_81
*841 FILLER_3_93
*842 FILLER_4_109
*843 FILLER_4_121
*844 FILLER_4_129
*845 FILLER_4_134
*846 FILLER_4_141
*847 FILLER_4_15
*848 FILLER_4_156
*849 FILLER_4_168
*850 FILLER_4_180
*851 FILLER_4_192
*852 FILLER_4_197
*853 FILLER_4_209
*854 FILLER_4_27
*855 FILLER_4_29
*856 FILLER_4_3
*857 FILLER_4_33
*858 FILLER_4_37
*859 FILLER_4_49
*860 FILLER_4_53
*861 FILLER_4_57
*862 FILLER_4_69
*863 FILLER_4_73
*864 FILLER_4_82
*865 FILLER_4_85
*866 FILLER_4_97
*867 FILLER_5_110
*868 FILLER_5_113
*869 FILLER_5_124
*870 FILLER_5_128
*871 FILLER_5_13
*872 FILLER_5_136
*873 FILLER_5_143
*874 FILLER_5_157
*875 FILLER_5_165
*876 FILLER_5_169
*877 FILLER_5_181
*878 FILLER_5_194
*879 FILLER_5_206
*880 FILLER_5_25
*881 FILLER_5_3
*882 FILLER_5_36
*883 FILLER_5_45
*884 FILLER_5_54
*885 FILLER_5_57
*886 FILLER_5_65
*887 FILLER_5_73
*888 FILLER_5_9
*889 FILLER_5_90
*890 FILLER_5_96
*891 FILLER_6_105
*892 FILLER_6_117
*893 FILLER_6_123
*894 FILLER_6_129
*895 FILLER_6_137
*896 FILLER_6_141
*897 FILLER_6_148
*898 FILLER_6_156
*899 FILLER_6_166
*900 FILLER_6_17
*901 FILLER_6_172
*902 FILLER_6_190
*903 FILLER_6_197
*904 FILLER_6_209
*905 FILLER_6_26
*906 FILLER_6_29
*907 FILLER_6_3
*908 FILLER_6_46
*909 FILLER_6_50
*910 FILLER_6_54
*911 FILLER_6_65
*912 FILLER_6_73
*913 FILLER_6_82
*914 FILLER_6_85
*915 FILLER_6_9
*916 FILLER_6_97
*917 FILLER_7_110
*918 FILLER_7_113
*919 FILLER_7_122
*920 FILLER_7_130
*921 FILLER_7_139
*922 FILLER_7_143
*923 FILLER_7_151
*924 FILLER_7_164
*925 FILLER_7_169
*926 FILLER_7_184
*927 FILLER_7_196
*928 FILLER_7_20
*929 FILLER_7_208
*930 FILLER_7_3
*931 FILLER_7_32
*932 FILLER_7_38
*933 FILLER_7_50
*934 FILLER_7_57
*935 FILLER_7_75
*936 FILLER_7_81
*937 FILLER_7_90
*938 FILLER_7_98
*939 FILLER_8_107
*940 FILLER_8_119
*941 FILLER_8_130
*942 FILLER_8_138
*943 FILLER_8_141
*944 FILLER_8_15
*945 FILLER_8_154
*946 FILLER_8_166
*947 FILLER_8_175
*948 FILLER_8_187
*949 FILLER_8_195
*950 FILLER_8_197
*951 FILLER_8_209
*952 FILLER_8_27
*953 FILLER_8_29
*954 FILLER_8_3
*955 FILLER_8_41
*956 FILLER_8_49
*957 FILLER_8_58
*958 FILLER_8_70
*959 FILLER_8_82
*960 FILLER_8_85
*961 FILLER_8_9
*962 FILLER_8_97
*963 FILLER_9_106
*964 FILLER_9_113
*965 FILLER_9_123
*966 FILLER_9_131
*967 FILLER_9_141
*968 FILLER_9_154
*969 FILLER_9_161
*970 FILLER_9_167
*971 FILLER_9_169
*972 FILLER_9_180
*973 FILLER_9_192
*974 FILLER_9_204
*975 FILLER_9_3
*976 FILLER_9_33
*977 FILLER_9_39
*978 FILLER_9_46
*979 FILLER_9_53
*980 FILLER_9_57
*981 FILLER_9_63
*982 FILLER_9_70
*983 FILLER_9_83
*984 FILLER_9_99
*985 PHY_0
*986 PHY_1
*987 PHY_10
*988 PHY_11
*989 PHY_12
*990 PHY_13
*991 PHY_14
*992 PHY_15
*993 PHY_16
*994 PHY_17
*995 PHY_18
*996 PHY_19
*997 PHY_2
*998 PHY_20
*999 PHY_21
*1000 PHY_22
*1001 PHY_23
*1002 PHY_24
*1003 PHY_25
*1004 PHY_26
*1005 PHY_27
*1006 PHY_28
*1007 PHY_29
*1008 PHY_3
*1009 PHY_30
*1010 PHY_31
*1011 PHY_32
*1012 PHY_33
*1013 PHY_34
*1014 PHY_35
*1015 PHY_36
*1016 PHY_37
*1017 PHY_38
*1018 PHY_39
*1019 PHY_4
*1020 PHY_40
*1021 PHY_41
*1022 PHY_42
*1023 PHY_43
*1024 PHY_44
*1025 PHY_45
*1026 PHY_46
*1027 PHY_47
*1028 PHY_48
*1029 PHY_49
*1030 PHY_5
*1031 PHY_50
*1032 PHY_51
*1033 PHY_52
*1034 PHY_53
*1035 PHY_54
*1036 PHY_55
*1037 PHY_56
*1038 PHY_57
*1039 PHY_58
*1040 PHY_59
*1041 PHY_6
*1042 PHY_60
*1043 PHY_61
*1044 PHY_62
*1045 PHY_63
*1046 PHY_7
*1047 PHY_8
*1048 PHY_9
*1049 TAP_100
*1050 TAP_101
*1051 TAP_102
*1052 TAP_103
*1053 TAP_104
*1054 TAP_105
*1055 TAP_106
*1056 TAP_107
*1057 TAP_108
*1058 TAP_109
*1059 TAP_110
*1060 TAP_111
*1061 TAP_112
*1062 TAP_113
*1063 TAP_114
*1064 TAP_115
*1065 TAP_116
*1066 TAP_117
*1067 TAP_118
*1068 TAP_119
*1069 TAP_120
*1070 TAP_121
*1071 TAP_122
*1072 TAP_123
*1073 TAP_124
*1074 TAP_125
*1075 TAP_126
*1076 TAP_127
*1077 TAP_128
*1078 TAP_129
*1079 TAP_130
*1080 TAP_131
*1081 TAP_132
*1082 TAP_133
*1083 TAP_134
*1084 TAP_135
*1085 TAP_136
*1086 TAP_137
*1087 TAP_138
*1088 TAP_139
*1089 TAP_140
*1090 TAP_141
*1091 TAP_142
*1092 TAP_143
*1093 TAP_144
*1094 TAP_145
*1095 TAP_146
*1096 TAP_147
*1097 TAP_148
*1098 TAP_149
*1099 TAP_150
*1100 TAP_151
*1101 TAP_152
*1102 TAP_153
*1103 TAP_154
*1104 TAP_155
*1105 TAP_156
*1106 TAP_157
*1107 TAP_158
*1108 TAP_159
*1109 TAP_160
*1110 TAP_161
*1111 TAP_162
*1112 TAP_163
*1113 TAP_164
*1114 TAP_165
*1115 TAP_166
*1116 TAP_167
*1117 TAP_168
*1118 TAP_169
*1119 TAP_170
*1120 TAP_171
*1121 TAP_172
*1122 TAP_173
*1123 TAP_174
*1124 TAP_175
*1125 TAP_176
*1126 TAP_177
*1127 TAP_178
*1128 TAP_179
*1129 TAP_180
*1130 TAP_181
*1131 TAP_182
*1132 TAP_64
*1133 TAP_65
*1134 TAP_66
*1135 TAP_67
*1136 TAP_68
*1137 TAP_69
*1138 TAP_70
*1139 TAP_71
*1140 TAP_72
*1141 TAP_73
*1142 TAP_74
*1143 TAP_75
*1144 TAP_76
*1145 TAP_77
*1146 TAP_78
*1147 TAP_79
*1148 TAP_80
*1149 TAP_81
*1150 TAP_82
*1151 TAP_83
*1152 TAP_84
*1153 TAP_85
*1154 TAP_86
*1155 TAP_87
*1156 TAP_88
*1157 TAP_89
*1158 TAP_90
*1159 TAP_91
*1160 TAP_92
*1161 TAP_93
*1162 TAP_94
*1163 TAP_95
*1164 TAP_96
*1165 TAP_97
*1166 TAP_98
*1167 TAP_99
*1168 _181_
*1169 _182_
*1170 _183_
*1171 _184_
*1172 _185_
*1173 _186_
*1174 _187_
*1175 _188_
*1176 _189_
*1177 _190_
*1178 _191_
*1179 _192_
*1180 _193_
*1181 _194_
*1182 _195_
*1183 _196_
*1184 _197_
*1185 _198_
*1186 _199_
*1187 _200_
*1188 _201_
*1189 _202_
*1190 _203_
*1191 _204_
*1192 _205_
*1193 _206_
*1194 _207_
*1195 _208_
*1196 _209_
*1197 _210_
*1198 _211_
*1199 _212_
*1200 _213_
*1201 _214_
*1202 _215_
*1203 _216_
*1204 _217_
*1205 _218_
*1206 _219_
*1207 _220_
*1208 _221_
*1209 _222_
*1210 _223_
*1211 _224_
*1212 _225_
*1213 _226_
*1214 _227_
*1215 _228_
*1216 _229_
*1217 _230_
*1218 _231_
*1219 _232_
*1220 _233_
*1221 _234_
*1222 _235_
*1223 _236_
*1224 _237_
*1225 _238_
*1226 _239_
*1227 _240_
*1228 _241_
*1229 _242_
*1230 _243_
*1231 _244_
*1232 _245_
*1233 _246_
*1234 _247_
*1235 _248_
*1236 _249_
*1237 _250_
*1238 _251_
*1239 _252_
*1240 _253_
*1241 _254_
*1242 _255_
*1243 _256_
*1244 _257_
*1245 _258_
*1246 _259_
*1247 _260_
*1248 _261_
*1249 _262_
*1250 _263_
*1251 _264_
*1252 _265_
*1253 _266_
*1254 _267_
*1255 _268_
*1256 _269_
*1257 _270_
*1258 _271_
*1259 _272_
*1260 _273_
*1261 _274_
*1262 _275_
*1263 _276_
*1264 _277_
*1265 _278_
*1266 _279_
*1267 _280_
*1268 _281_
*1269 _282_
*1270 _283_
*1271 _284_
*1272 _285_
*1273 _286_
*1274 _287_
*1275 _288_
*1276 _289_
*1277 _290_
*1278 _291_
*1279 _292_
*1280 _293_
*1281 _294_
*1282 _295_
*1283 _296_
*1284 _297_
*1285 _298_
*1286 _299_
*1287 _300_
*1288 _301_
*1289 _302_
*1290 _303_
*1291 _304_
*1292 _305_
*1293 _306_
*1294 _307_
*1295 _308_
*1296 _309_
*1297 _310_
*1298 _311_
*1299 _312_
*1300 _313_
*1301 _314_
*1302 _315_
*1303 _316_
*1304 _317_
*1305 _318_
*1306 _319_
*1307 _320_
*1308 _321_
*1309 _322_
*1310 _323_
*1311 _324_
*1312 _325_
*1313 _326_
*1314 _327_
*1315 _328_
*1316 _329_
*1317 _330_
*1318 _331_
*1319 _332_
*1320 _333_
*1321 _334_
*1322 _335_
*1323 _336_
*1324 _337_
*1325 _338_
*1326 _339_
*1327 _340_
*1328 _341_
*1329 _342_
*1330 _343_
*1331 _344_
*1332 _345_
*1333 _346_
*1334 _347_
*1335 _348_
*1336 _349_
*1337 _350_
*1338 _351_
*1339 _352_
*1340 _353_
*1341 _354_
*1342 _355_
*1343 _356_
*1344 _357_
*1345 _358_
*1346 _359_
*1347 _360_
*1348 _361_
*1349 _362_
*1350 _363_
*1351 _364_
*1352 _365_
*1353 _366_
*1354 _367_
*1355 _368_
*1356 _369_
*1357 _370_
*1358 _371_
*1359 _372_
*1360 _373_
*1361 _374_
*1362 _375_
*1363 _376_
*1364 _377_
*1365 _378_
*1366 _379_
*1367 _380_
*1368 _381_
*1369 _382_
*1370 _383_
*1371 _384_
*1372 _385_
*1373 _386_
*1374 _387_
*1375 _388_
*1376 _389_
*1377 _390_
*1378 _391_
*1379 _392_
*1380 _393_
*1381 _394_
*1382 _395_
*1383 _396_
*1384 _397_
*1385 _398_
*1386 _399_
*1387 _400_
*1388 _401_
*1389 _402_
*1390 _403_
*1391 _404_
*1392 _405_
*1393 _406_
*1394 _407_
*1395 _408_
*1396 _409_
*1397 _410_
*1398 _411_
*1399 _412_
*1400 _413_
*1401 _414_
*1402 _415_
*1403 clkbuf_0_clk
*1404 clkbuf_2_0__f_clk
*1405 clkbuf_2_1__f_clk
*1406 clkbuf_2_2__f_clk
*1407 clkbuf_2_3__f_clk
*1408 fanout11
*1409 fanout12
*1410 fanout13
*1411 fanout14
*1412 fanout15
*1413 fanout16
*1414 fanout17
*1415 fanout18
*1416 fanout19
*1417 fanout20
*1418 input1
*1419 input2
*1420 output10
*1421 output3
*1422 output4
*1423 output5
*1424 output6
*1425 output7
*1426 output8
*1427 output9

*PORTS
clk I
io_in I
io_out[0] O
io_out[1] O
io_out[2] O
io_out[3] O
io_out[4] O
io_out[5] O
io_out[6] O
io_out[7] O
rst I

*D_NET *1 0.00437069
*CONN
*P clk I
*I *1403:A I *D sky130_fd_sc_hd__clkbuf_16
*CAP
1 clk 0.00177739
2 *1403:A 0.000407957
3 *1:10 0.00218534
4 *1403:A *198:85 0
5 *1403:A *198:92 0
6 *1403:A *198:99 0
7 *1403:A *206:7 0
8 *1:10 *1337:B 0
9 *1:10 *1387:D 0
10 *1:10 *1393:D 0
11 *1:10 *238:10 0
12 *1:10 *252:23 0
13 *1:10 *252:94 0
*RES
1 clk *1:10 49.9643 
2 *1:10 *1403:A 37.675 
*END

*D_NET *2 0.00124821
*CONN
*P io_in I
*I *1418:A I *D sky130_fd_sc_hd__clkbuf_2
*CAP
1 io_in 0.000624105
2 *1418:A 0.000624105
3 *1418:A *1321:A 0
4 *1418:A *1417:A 0
5 *1418:A *258:12 0
*RES
1 io_in *1418:A 32.9964 
*END

*D_NET *3 0.00068272
*CONN
*P io_out[0] O
*I *1421:X O *D sky130_fd_sc_hd__buf_4
*CAP
1 io_out[0] 0.00034136
2 *1421:X 0.00034136
*RES
1 *1421:X io_out[0] 26.8536 
*END

*D_NET *4 0.00068272
*CONN
*P io_out[1] O
*I *1422:X O *D sky130_fd_sc_hd__buf_4
*CAP
1 io_out[1] 0.00034136
2 *1422:X 0.00034136
3 io_out[1] *1421:A 0
*RES
1 *1422:X io_out[1] 26.8536 
*END

*D_NET *5 0.00068272
*CONN
*P io_out[2] O
*I *1423:X O *D sky130_fd_sc_hd__buf_4
*CAP
1 io_out[2] 0.00034136
2 *1423:X 0.00034136
*RES
1 *1423:X io_out[2] 26.8536 
*END

*D_NET *6 0.000746417
*CONN
*P io_out[3] O
*I *1424:X O *D sky130_fd_sc_hd__buf_4
*CAP
1 io_out[3] 0.000373209
2 *1424:X 0.000373209
3 io_out[3] *1425:A 0
*RES
1 *1424:X io_out[3] 27.6393 
*END

*D_NET *7 0.000720844
*CONN
*P io_out[4] O
*I *1425:X O *D sky130_fd_sc_hd__buf_4
*CAP
1 io_out[4] 0.000360422
2 *1425:X 0.000360422
3 io_out[4] *1426:A 0
4 io_out[4] *1427:A 0
*RES
1 *1425:X io_out[4] 27.5143 
*END

*D_NET *8 0.000713026
*CONN
*P io_out[5] O
*I *1426:X O *D sky130_fd_sc_hd__buf_4
*CAP
1 io_out[5] 0.000356513
2 *1426:X 0.000356513
3 io_out[5] *1427:A 0
*RES
1 *1426:X io_out[5] 27.5143 
*END

*D_NET *9 0.000693231
*CONN
*P io_out[6] O
*I *1427:X O *D sky130_fd_sc_hd__buf_4
*CAP
1 io_out[6] 0.000346615
2 *1427:X 0.000346615
*RES
1 *1427:X io_out[6] 27.3893 
*END

*D_NET *10 0.000604002
*CONN
*P io_out[7] O
*I *1420:X O *D sky130_fd_sc_hd__buf_4
*CAP
1 io_out[7] 0.000302001
2 *1420:X 0.000302001
*RES
1 *1420:X io_out[7] 26.0321 
*END

*D_NET *11 0.000840839
*CONN
*P rst I
*I *1419:A I *D sky130_fd_sc_hd__clkbuf_2
*CAP
1 rst 0.00042042
2 *1419:A 0.00042042
*RES
1 rst *1419:A 29.0143 
*END

*D_NET *14 0.00157665
*CONN
*I *1354:D I *D sky130_fd_sc_hd__dfxtp_1
*I *1243:X O *D sky130_fd_sc_hd__a21bo_1
*CAP
1 *1354:D 0
2 *1243:X 0.000788325
3 *14:11 0.000788325
4 *14:11 *1229:A 0
5 *14:11 *1240:A 0
6 *14:11 *1243:A1 0
7 *14:11 *1249:B 0
8 *14:11 *1402:CLK 0
9 *14:11 *65:44 0
10 *14:11 *67:11 0
11 *14:11 *139:5 0
12 *14:11 *259:8 0
13 *14:11 *260:8 0
*RES
1 *1243:X *14:11 44.5009 
2 *14:11 *1354:D 9.3 
*END

*D_NET *15 0.000469465
*CONN
*I *1355:D I *D sky130_fd_sc_hd__dfxtp_1
*I *1246:Y O *D sky130_fd_sc_hd__nand2_1
*CAP
1 *1355:D 0.000234732
2 *1246:Y 0.000234732
3 *1355:D *1353:D 0
4 *1355:D *21:11 0
5 *1355:D *196:11 0
6 *1355:D *260:8 0
*RES
1 *1246:Y *1355:D 42.3679 
*END

*D_NET *16 0.00177618
*CONN
*I *1356:D I *D sky130_fd_sc_hd__dfxtp_1
*I *1247:X O *D sky130_fd_sc_hd__o21ba_1
*CAP
1 *1356:D 2.75939e-05
2 *1247:X 0.000860494
3 *16:10 0.000888088
4 *16:10 *1356:CLK 0
5 *16:10 *1401:CLK 0
6 *16:10 *1404:A 0
7 *16:10 *17:9 0
8 *16:10 *28:8 0
9 *16:10 *65:15 0
10 *16:10 *195:12 0
*RES
1 *1247:X *16:10 49.5143 
2 *16:10 *1356:D 9.87589 
*END

*D_NET *17 0.00127708
*CONN
*I *1357:D I *D sky130_fd_sc_hd__dfxtp_1
*I *1248:Y O *D sky130_fd_sc_hd__o21ai_1
*CAP
1 *1357:D 0
2 *1248:Y 0.000638542
3 *17:9 0.000638542
4 *17:9 *1249:B 0
5 *17:9 *1402:CLK 0
6 *17:9 *28:8 0
7 *16:10 *17:9 0
*RES
1 *1248:Y *17:9 43.7866 
2 *17:9 *1357:D 9.3 
*END

*D_NET *18 0.00106666
*CONN
*I *1358:D I *D sky130_fd_sc_hd__dfxtp_1
*I *1249:Y O *D sky130_fd_sc_hd__nand2_1
*CAP
1 *1358:D 0.000533329
2 *1249:Y 0.000533329
3 *1358:D *1249:A 0
4 *1358:D *1349:D 0
5 *1358:D *1354:CLK 0
6 *1358:D *1358:CLK 0
7 *1358:D *31:10 0
8 *1358:D *197:55 0
9 *1358:D *263:8 0
*RES
1 *1249:Y *1358:D 49.4437 
*END

*D_NET *19 0.000976695
*CONN
*I *1349:D I *D sky130_fd_sc_hd__dfxtp_1
*I *1250:X O *D sky130_fd_sc_hd__or2_1
*CAP
1 *1349:D 0.000488347
2 *1250:X 0.000488347
3 *1349:D *1249:A 0
4 *1349:D *1349:CLK 0
5 *1349:D *31:10 0
6 *1349:D *119:36 0
7 *1349:D *262:11 0
8 *1349:D *263:8 0
9 *1358:D *1349:D 0
*RES
1 *1250:X *1349:D 48.0821 
*END

*D_NET *20 0.00112173
*CONN
*I *1350:D I *D sky130_fd_sc_hd__dfxtp_4
*I *1251:Y O *D sky130_fd_sc_hd__nor2_1
*CAP
1 *1350:D 0.000560863
2 *1251:Y 0.000560863
3 *1350:D *243:7 0
4 *1350:D *252:23 0
5 *1350:D *252:25 0
*RES
1 *1251:Y *1350:D 30.3679 
*END

*D_NET *21 0.00185105
*CONN
*I *1351:D I *D sky130_fd_sc_hd__dfxtp_4
*I *1253:X O *D sky130_fd_sc_hd__o21a_1
*CAP
1 *1351:D 0
2 *1253:X 0.000925525
3 *21:11 0.000925525
4 *21:11 *1353:CLK 0
5 *21:11 *1353:D 0
6 *21:11 *227:10 0
7 *1355:D *21:11 0
*RES
1 *1253:X *21:11 48.3893 
2 *21:11 *1351:D 9.3 
*END

*D_NET *22 0.00139339
*CONN
*I *1352:D I *D sky130_fd_sc_hd__dfxtp_2
*I *1256:Y O *D sky130_fd_sc_hd__nor2_1
*CAP
1 *1352:D 0.000696693
2 *1256:Y 0.000696693
3 *1352:D *245:8 0
*RES
1 *1256:Y *1352:D 33.1402 
*END

*D_NET *23 0.000857217
*CONN
*I *1353:D I *D sky130_fd_sc_hd__dfxtp_1
*I *1246:B I *D sky130_fd_sc_hd__nand2_1
*I *1245:Y O *D sky130_fd_sc_hd__o21bai_1
*CAP
1 *1353:D 0.000141693
2 *1246:B 2.56688e-05
3 *1245:Y 0.000261247
4 *23:6 0.000428609
5 *1353:D *260:8 0
6 *23:6 *1243:A2 0
7 *23:6 *1245:A1 0
8 *23:6 *1246:A 0
9 *1355:D *1353:D 0
10 *21:11 *1353:D 0
*RES
1 *1245:Y *23:6 25.1036 
2 *23:6 *1246:B 18.8357 
3 *23:6 *1353:D 21.6437 
*END

*D_NET *24 0.000847618
*CONN
*I *1359:D I *D sky130_fd_sc_hd__dfxtp_1
*I *1257:X O *D sky130_fd_sc_hd__a211o_1
*CAP
1 *1359:D 0.000423809
2 *1257:X 0.000423809
3 *1359:D *1169:A 0
4 *1359:D *1368:D 0
5 *1359:D *29:9 0
6 *1359:D *119:36 0
7 *1359:D *247:8 0
*RES
1 *1257:X *1359:D 47.158 
*END

*D_NET *25 0.00451287
*CONN
*I *1360:D I *D sky130_fd_sc_hd__dfxtp_1
*I *1260:X O *D sky130_fd_sc_hd__o21a_1
*CAP
1 *1360:D 0
2 *1260:X 0.000693485
3 *25:19 0.00156295
4 *25:11 0.00225644
5 *25:11 *1264:A1 0
6 *25:11 *1264:A2 0
7 *25:11 *1264:B1 0
8 *25:11 *1265:A1 0
9 *25:11 *1265:A2 0
10 *25:11 *1265:B1 0
11 *25:11 *27:10 0
12 *25:11 *89:21 0
13 *25:11 *90:5 0
14 *25:11 *121:43 0
15 *25:19 *1270:A1 0
16 *25:19 *1360:CLK 0
17 *25:19 *1367:CLK 0
18 *25:19 *1369:D 0
19 *25:19 *27:10 0
20 *25:19 *27:15 0
21 *25:19 *147:8 0
22 *25:19 *197:58 0
23 *25:19 *197:76 0
24 *25:19 *197:85 0
25 *25:19 *197:92 0
26 *25:19 *247:8 0
*RES
1 *1260:X *25:11 32.8357 
2 *25:11 *25:19 49.4152 
3 *25:19 *1360:D 9.3 
*END

*D_NET *26 0.00236381
*CONN
*I *1361:D I *D sky130_fd_sc_hd__dfxtp_2
*I *1263:X O *D sky130_fd_sc_hd__and3_1
*CAP
1 *1361:D 0.000125991
2 *1263:X 0.00105591
3 *26:12 0.00118191
4 *26:12 *1266:A1 0
5 *26:12 *1267:D 0
6 *26:12 *1271:B 0
7 *26:12 *1278:B 0
8 *26:12 *1278:C 0
9 *26:12 *27:10 0
10 *26:12 *27:15 0
11 *26:12 *73:27 0
12 *26:12 *97:21 0
13 *26:12 *119:14 0
14 *26:12 *152:10 0
15 *26:12 *207:55 0
16 *26:12 *208:14 0
17 *26:12 *249:24 0
*RES
1 *1263:X *26:12 45.7286 
2 *26:12 *1361:D 20.9295 
*END

*D_NET *27 0.00429331
*CONN
*I *1362:D I *D sky130_fd_sc_hd__dfxtp_2
*I *1265:Y O *D sky130_fd_sc_hd__a21oi_2
*CAP
1 *1362:D 0
2 *1265:Y 0.000647108
3 *27:15 0.00149955
4 *27:10 0.00214665
5 *27:10 *1265:A1 0
6 *27:10 *1266:A1 0
7 *27:10 *1277:B1 0
8 *27:10 *1278:C 0
9 *27:10 *1369:D 0
10 *27:10 *89:21 0
11 *27:10 *152:10 0
12 *27:10 *152:43 0
13 *27:10 *209:29 0
14 *27:15 *1362:CLK 0