*SPEF "ieee 1481-1999"
*DESIGN "tt2_tholin_multiplexed_counter"
*DATE "11:11:11 Fri 11 11, 1111"
*VENDOR "OpenRCX"
*PROGRAM "Parallel Extraction"
*VERSION "1.0"
*DESIGN_FLOW "NAME_SCOPE LOCAL" "PIN_CAP NONE"
*DIVIDER /
*DELIMITER :
*BUS_DELIMITER []
*T_UNIT 1 NS
*C_UNIT 1 PF
*R_UNIT 1 OHM
*L_UNIT 1 HENRY

*NAME_MAP
*1 clk
*2 io_out[0]
*3 io_out[10]
*4 io_out[11]
*5 io_out[1]
*6 io_out[2]
*7 io_out[3]
*8 io_out[4]
*9 io_out[5]
*10 io_out[6]
*11 io_out[7]
*12 io_out[8]
*13 io_out[9]
*14 rst
*17 CIRCUIT_1111\.MEMORY_2\.d
*18 CIRCUIT_1111\.MEMORY_2\.s_currentState
*19 CIRCUIT_1111\.MEMORY_3\.d
*20 CIRCUIT_1111\.MEMORY_3\.s_currentState
*21 CIRCUIT_1111\.MEMORY_4\.d
*22 CIRCUIT_1111\.MEMORY_6\.d
*23 CIRCUIT_1111\.MEMORY_6\.s_currentState
*24 CIRCUIT_1111\.MEMORY_7\.d
*25 CIRCUIT_1111\.MEMORY_7\.s_currentState
*26 CIRCUIT_1111\.custom_counter_10_1\.MEMORY_1\.d
*27 CIRCUIT_1111\.custom_counter_10_1\.MEMORY_1\.s_currentState
*28 CIRCUIT_1111\.custom_counter_10_1\.MEMORY_10\.clock
*29 CIRCUIT_1111\.custom_counter_10_1\.MEMORY_10\.d
*30 CIRCUIT_1111\.custom_counter_10_1\.MEMORY_10\.s_currentState
*31 CIRCUIT_1111\.custom_counter_10_1\.MEMORY_2\.d
*32 CIRCUIT_1111\.custom_counter_10_1\.MEMORY_2\.s_currentState
*33 CIRCUIT_1111\.custom_counter_10_1\.MEMORY_3\.d
*34 CIRCUIT_1111\.custom_counter_10_1\.MEMORY_3\.s_currentState
*35 CIRCUIT_1111\.custom_counter_10_1\.MEMORY_4\.d
*36 CIRCUIT_1111\.custom_counter_10_1\.MEMORY_4\.s_currentState
*37 CIRCUIT_1111\.custom_counter_10_1\.MEMORY_5\.d
*38 CIRCUIT_1111\.custom_counter_10_1\.MEMORY_5\.s_currentState
*39 CIRCUIT_1111\.custom_counter_10_1\.MEMORY_6\.d
*40 CIRCUIT_1111\.custom_counter_10_1\.MEMORY_6\.s_currentState
*41 CIRCUIT_1111\.custom_counter_10_1\.MEMORY_7\.clock
*42 CIRCUIT_1111\.custom_counter_10_1\.MEMORY_7\.d
*43 CIRCUIT_1111\.custom_counter_10_1\.MEMORY_7\.s_currentState
*44 CIRCUIT_1111\.custom_counter_10_1\.MEMORY_8\.s_currentState
*45 CIRCUIT_1111\.custom_counter_10_1\.MEMORY_9\.s_currentState
*46 CIRCUIT_1111\.full_counter_1\.ARITH_1\.aEqualsB
*47 CIRCUIT_1111\.full_counter_1\.ARITH_2\.aEqualsB
*48 CIRCUIT_1111\.full_counter_1\.MEMORY_3\.s_currentState
*49 CIRCUIT_1111\.full_counter_1\.MEMORY_6\.s_currentState
*50 CIRCUIT_1111\.full_counter_1\.custom_counter_4_1\.MEMORY_1\.d
*51 CIRCUIT_1111\.full_counter_1\.custom_counter_4_1\.MEMORY_1\.s_currentState
*52 CIRCUIT_1111\.full_counter_1\.custom_counter_4_1\.MEMORY_2\.d
*53 CIRCUIT_1111\.full_counter_1\.custom_counter_4_1\.MEMORY_2\.s_currentState
*54 CIRCUIT_1111\.full_counter_1\.custom_counter_4_1\.MEMORY_3\.d
*55 CIRCUIT_1111\.full_counter_1\.custom_counter_4_1\.MEMORY_3\.s_currentState
*56 CIRCUIT_1111\.full_counter_1\.custom_counter_4_1\.MEMORY_4\.d
*57 CIRCUIT_1111\.full_counter_1\.custom_counter_4_1\.MEMORY_4\.s_currentState
*58 CIRCUIT_1111\.full_counter_1\.custom_counter_4_2\.MEMORY_1\.d
*59 CIRCUIT_1111\.full_counter_1\.custom_counter_4_2\.MEMORY_1\.s_currentState
*60 CIRCUIT_1111\.full_counter_1\.custom_counter_4_2\.MEMORY_2\.d
*61 CIRCUIT_1111\.full_counter_1\.custom_counter_4_2\.MEMORY_2\.s_currentState
*62 CIRCUIT_1111\.full_counter_1\.custom_counter_4_2\.MEMORY_3\.d
*63 CIRCUIT_1111\.full_counter_1\.custom_counter_4_2\.MEMORY_3\.s_currentState
*64 CIRCUIT_1111\.full_counter_1\.custom_counter_4_2\.MEMORY_4\.d
*65 CIRCUIT_1111\.full_counter_1\.custom_counter_4_2\.MEMORY_4\.s_currentState
*66 CIRCUIT_1111\.full_counter_1\.seconds_counter_1\.ARITH_1\.aEqualsB
*67 CIRCUIT_1111\.full_counter_1\.seconds_counter_1\.ARITH_4\.aEqualsB
*68 CIRCUIT_1111\.full_counter_1\.seconds_counter_1\.MEMORY_5\.s_currentState
*69 CIRCUIT_1111\.full_counter_1\.seconds_counter_1\.MEMORY_6\.s_currentState
*70 CIRCUIT_1111\.full_counter_1\.seconds_counter_1\.custom_counter_4_1\.MEMORY_1\.d
*71 CIRCUIT_1111\.full_counter_1\.seconds_counter_1\.custom_counter_4_1\.MEMORY_1\.s_currentState
*72 CIRCUIT_1111\.full_counter_1\.seconds_counter_1\.custom_counter_4_1\.MEMORY_2\.d
*73 CIRCUIT_1111\.full_counter_1\.seconds_counter_1\.custom_counter_4_1\.MEMORY_2\.s_currentState
*74 CIRCUIT_1111\.full_counter_1\.seconds_counter_1\.custom_counter_4_1\.MEMORY_3\.d
*75 CIRCUIT_1111\.full_counter_1\.seconds_counter_1\.custom_counter_4_1\.MEMORY_3\.s_currentState
*76 CIRCUIT_1111\.full_counter_1\.seconds_counter_1\.custom_counter_4_1\.MEMORY_4\.d
*77 CIRCUIT_1111\.full_counter_1\.seconds_counter_1\.custom_counter_4_1\.MEMORY_4\.s_currentState
*78 CIRCUIT_1111\.full_counter_1\.seconds_counter_1\.custom_counter_4_2\.MEMORY_1\.d
*79 CIRCUIT_1111\.full_counter_1\.seconds_counter_1\.custom_counter_4_2\.MEMORY_1\.s_currentState
*80 CIRCUIT_1111\.full_counter_1\.seconds_counter_1\.custom_counter_4_2\.MEMORY_2\.d
*81 CIRCUIT_1111\.full_counter_1\.seconds_counter_1\.custom_counter_4_2\.MEMORY_2\.s_currentState
*82 CIRCUIT_1111\.full_counter_1\.seconds_counter_1\.custom_counter_4_2\.MEMORY_3\.d
*83 CIRCUIT_1111\.full_counter_1\.seconds_counter_1\.custom_counter_4_2\.MEMORY_3\.s_currentState
*84 _007_
*85 _009_
*86 _011_
*87 _013_
*88 _015_
*89 _017_
*90 _019_
*91 _021_
*92 _023_
*93 _026_
*94 _027_
*95 _028_
*96 _029_
*97 _030_
*98 _031_
*99 _032_
*100 _033_
*101 _034_
*102 _035_
*103 _036_
*104 _037_
*105 _038_
*106 _041_
*107 _042_
*108 _043_
*109 _044_
*110 _045_
*111 _046_
*112 _047_
*113 _048_
*114 _049_
*115 _050_
*116 _051_
*117 _052_
*118 _053_
*119 _054_
*120 _056_
*121 _058_
*122 _060_
*123 _062_
*124 _064_
*125 _065_
*126 _066_
*127 _067_
*128 _068_
*129 _069_
*130 _070_
*131 _071_
*132 _072_
*133 _073_
*134 _074_
*135 _075_
*136 _076_
*137 _077_
*138 _078_
*139 _079_
*140 _080_
*141 _081_
*142 _082_
*143 _083_
*144 _084_
*145 _085_
*146 _086_
*147 _087_
*148 _088_
*149 _089_
*150 _090_
*151 _091_
*152 _092_
*153 _093_
*154 _094_
*155 clknet_0__068_
*156 clknet_0_clk
*157 clknet_1_0__leaf_clk
*158 clknet_1_1__leaf_clk
*159 clknet_2_0__leaf__068_
*160 clknet_2_1__leaf__068_
*161 clknet_2_2__leaf__068_
*162 clknet_2_3__leaf__068_
*163 net1
*164 net10
*165 net11
*166 net12
*167 net13
*168 net14
*169 net15
*170 net16
*171 net17
*172 net18
*173 net19
*174 net2
*175 net20
*176 net21
*177 net22
*178 net23
*179 net24
*180 net25
*181 net26
*182 net27
*183 net28
*184 net29
*185 net3
*186 net30
*187 net31
*188 net32
*189 net33
*190 net34
*191 net35
*192 net36
*193 net37
*194 net4
*195 net5
*196 net6
*197 net7
*198 net8
*199 net9
*200 prev_sel
*201 FILLER_0_100
*202 FILLER_0_11
*203 FILLER_0_113
*204 FILLER_0_121
*205 FILLER_0_125
*206 FILLER_0_132
*207 FILLER_0_141
*208 FILLER_0_154
*209 FILLER_0_164
*210 FILLER_0_20
*211 FILLER_0_29
*212 FILLER_0_3
*213 FILLER_0_37
*214 FILLER_0_45
*215 FILLER_0_52
*216 FILLER_0_57
*217 FILLER_0_61
*218 FILLER_0_68
*219 FILLER_0_82
*220 FILLER_0_85
*221 FILLER_0_93
*222 FILLER_10_100
*223 FILLER_10_121
*224 FILLER_10_133
*225 FILLER_10_138
*226 FILLER_10_141
*227 FILLER_10_15
*228 FILLER_10_166
*229 FILLER_10_27
*230 FILLER_10_29
*231 FILLER_10_3
*232 FILLER_10_34
*233 FILLER_10_42
*234 FILLER_10_65
*235 FILLER_10_71
*236 FILLER_10_75
*237 FILLER_10_82
*238 FILLER_10_85
*239 FILLER_10_92
*240 FILLER_11_105
*241 FILLER_11_111
*242 FILLER_11_113
*243 FILLER_11_148
*244 FILLER_11_155
*245 FILLER_11_167
*246 FILLER_11_18
*247 FILLER_11_3
*248 FILLER_11_30
*249 FILLER_11_42
*250 FILLER_11_54
*251 FILLER_11_57
*252 FILLER_11_76
*253 FILLER_11_84
*254 FILLER_12_109
*255 FILLER_12_121
*256 FILLER_12_133
*257 FILLER_12_139
*258 FILLER_12_141
*259 FILLER_12_146
*260 FILLER_12_158
*261 FILLER_12_166
*262 FILLER_12_26
*263 FILLER_12_29
*264 FILLER_12_3
*265 FILLER_12_37
*266 FILLER_12_56
*267 FILLER_12_77
*268 FILLER_12_83
*269 FILLER_12_85
*270 FILLER_13_10
*271 FILLER_13_102
*272 FILLER_13_110
*273 FILLER_13_113
*274 FILLER_13_119
*275 FILLER_13_131
*276 FILLER_13_143
*277 FILLER_13_158
*278 FILLER_13_165
*279 FILLER_13_3
*280 FILLER_13_35
*281 FILLER_13_39
*282 FILLER_13_43
*283 FILLER_13_54
*284 FILLER_13_57
*285 FILLER_13_67
*286 FILLER_13_73
*287 FILLER_13_77
*288 FILLER_14_11
*289 FILLER_14_126
*290 FILLER_14_130
*291 FILLER_14_134
*292 FILLER_14_141
*293 FILLER_14_166
*294 FILLER_14_17
*295 FILLER_14_26
*296 FILLER_14_29
*297 FILLER_14_3
*298 FILLER_14_36
*299 FILLER_14_44
*300 FILLER_14_65
*301 FILLER_14_77
*302 FILLER_14_82
*303 FILLER_14_85
*304 FILLER_14_92
*305 FILLER_14_99
*306 FILLER_15_110
*307 FILLER_15_113
*308 FILLER_15_144
*309 FILLER_15_15
*310 FILLER_15_152
*311 FILLER_15_156
*312 FILLER_15_163
*313 FILLER_15_167
*314 FILLER_15_27
*315 FILLER_15_3
*316 FILLER_15_39
*317 FILLER_15_51
*318 FILLER_15_55
*319 FILLER_15_57
*320 FILLER_15_62
*321 FILLER_15_86
*322 FILLER_16_117
*323 FILLER_16_125
*324 FILLER_16_131
*325 FILLER_16_138
*326 FILLER_16_141
*327 FILLER_16_15
*328 FILLER_16_166
*329 FILLER_16_27
*330 FILLER_16_29
*331 FILLER_16_3
*332 FILLER_16_41
*333 FILLER_16_53
*334 FILLER_16_77
*335 FILLER_16_83
*336 FILLER_16_85
*337 FILLER_16_93
*338 FILLER_17_101
*339 FILLER_17_107
*340 FILLER_17_11
*341 FILLER_17_111
*342 FILLER_17_113
*343 FILLER_17_118
*344 FILLER_17_125
*345 FILLER_17_137
*346 FILLER_17_152
*347 FILLER_17_16
*348 FILLER_17_160
*349 FILLER_17_165
*350 FILLER_17_25
*351 FILLER_17_3
*352 FILLER_17_37
*353 FILLER_17_49
*354 FILLER_17_54
*355 FILLER_17_57
*356 FILLER_17_80
*357 FILLER_17_89
*358 FILLER_18_109
*359 FILLER_18_121
*360 FILLER_18_133
*361 FILLER_18_139
*362 FILLER_18_141
*363 FILLER_18_153
*364 FILLER_18_165
*365 FILLER_18_26
*366 FILLER_18_29
*367 FILLER_18_3
*368 FILLER_18_37
*369 FILLER_18_49
*370 FILLER_18_53
*371 FILLER_18_57
*372 FILLER_18_64
*373 FILLER_18_73
*374 FILLER_18_81
*375 FILLER_18_85
*376 FILLER_18_97
*377 FILLER_19_101
*378 FILLER_19_109
*379 FILLER_19_113
*380 FILLER_19_118
*381 FILLER_19_13
*382 FILLER_19_130
*383 FILLER_19_142
*384 FILLER_19_146
*385 FILLER_19_150
*386 FILLER_19_157
*387 FILLER_19_165
*388 FILLER_19_20
*389 FILLER_19_3
*390 FILLER_19_45
*391 FILLER_19_53
*392 FILLER_19_57
*393 FILLER_19_70
*394 FILLER_19_77
*395 FILLER_19_89
*396 FILLER_19_9
*397 FILLER_1_103
*398 FILLER_1_11
*399 FILLER_1_110
*400 FILLER_1_113
*401 FILLER_1_131
*402 FILLER_1_144
*403 FILLER_1_157
*404 FILLER_1_165
*405 FILLER_1_23
*406 FILLER_1_3
*407 FILLER_1_30
*408 FILLER_1_39
*409 FILLER_1_49
*410 FILLER_1_55
*411 FILLER_1_57
*412 FILLER_1_62
*413 FILLER_1_74
*414 FILLER_1_86
*415 FILLER_1_91
*416 FILLER_20_11
*417 FILLER_20_118
*418 FILLER_20_130
*419 FILLER_20_138
*420 FILLER_20_141
*421 FILLER_20_166
*422 FILLER_20_17
*423 FILLER_20_25
*424 FILLER_20_29
*425 FILLER_20_3
*426 FILLER_20_36
*427 FILLER_20_48
*428 FILLER_20_59
*429 FILLER_20_82
*430 FILLER_20_85
*431 FILLER_20_93
*432 FILLER_21_102
*433 FILLER_21_11
*434 FILLER_21_110
*435 FILLER_21_113
*436 FILLER_21_119
*437 FILLER_21_126
*438 FILLER_21_153
*439 FILLER_21_160
*440 FILLER_21_3
*441 FILLER_21_33
*442 FILLER_21_45
*443 FILLER_21_54
*444 FILLER_21_57
*445 FILLER_21_64
*446 FILLER_21_70
*447 FILLER_21_92
*448 FILLER_21_98
*449 FILLER_22_122
*450 FILLER_22_130
*451 FILLER_22_135
*452 FILLER_22_139
*453 FILLER_22_141
*454 FILLER_22_15
*455 FILLER_22_166
*456 FILLER_22_19
*457 FILLER_22_27
*458 FILLER_22_29
*459 FILLER_22_3
*460 FILLER_22_36
*461 FILLER_22_48
*462 FILLER_22_70
*463 FILLER_22_82
*464 FILLER_22_85
*465 FILLER_22_92
*466 FILLER_22_98
*467 FILLER_23_100
*468 FILLER_23_104
*469 FILLER_23_113
*470 FILLER_23_118
*471 FILLER_23_125
*472 FILLER_23_133
*473 FILLER_23_139
*474 FILLER_23_146
*475 FILLER_23_15
*476 FILLER_23_153
*477 FILLER_23_160
*478 FILLER_23_23
*479 FILLER_23_3
*480 FILLER_23_42
*481 FILLER_23_54
*482 FILLER_23_57
*483 FILLER_23_62
*484 FILLER_23_74
*485 FILLER_23_86
*486 FILLER_23_90
*487 FILLER_23_94
*488 FILLER_24_103
*489 FILLER_24_107
*490 FILLER_24_111
*491 FILLER_24_113
*492 FILLER_24_125
*493 FILLER_24_137
*494 FILLER_24_141
*495 FILLER_24_147
*496 FILLER_24_15
*497 FILLER_24_154
*498 FILLER_24_166
*499 FILLER_24_27
*500 FILLER_24_29
*501 FILLER_24_3
*502 FILLER_24_34
*503 FILLER_24_46
*504 FILLER_24_54
*505 FILLER_24_57
*506 FILLER_24_69
*507 FILLER_24_81
*508 FILLER_24_85
*509 FILLER_24_97
*510 FILLER_2_104
*511 FILLER_2_124
*512 FILLER_2_137
*513 FILLER_2_141
*514 FILLER_2_159
*515 FILLER_2_16
*516 FILLER_2_166
*517 FILLER_2_26
*518 FILLER_2_29
*519 FILLER_2_3
*520 FILLER_2_44
*521 FILLER_2_48
*522 FILLER_2_57
*523 FILLER_2_67
*524 FILLER_2_79
*525 FILLER_2_83
*526 FILLER_2_85
*527 FILLER_3_106
*528 FILLER_3_110
*529 FILLER_3_113
*530 FILLER_3_123
*531 FILLER_3_135
*532 FILLER_3_15
*533 FILLER_3_155
*534 FILLER_3_165
*535 FILLER_3_22
*536 FILLER_3_3
*537 FILLER_3_30
*538 FILLER_3_40
*539 FILLER_3_50
*540 FILLER_3_57
*541 FILLER_3_62
*542 FILLER_3_70
*543 FILLER_3_94
*544 FILLER_4_104
*545 FILLER_4_112
*546 FILLER_4_120
*547 FILLER_4_132
*548 FILLER_4_138
*549 FILLER_4_141
*550 FILLER_4_149
*551 FILLER_4_15
*552 FILLER_4_157
*553 FILLER_4_166
*554 FILLER_4_27
*555 FILLER_4_29
*556 FILLER_4_3
*557 FILLER_4_34
*558 FILLER_4_43
*559 FILLER_4_51
*560 FILLER_4_59
*561 FILLER_4_63
*562 FILLER_4_70
*563 FILLER_4_81
*564 FILLER_4_85
*565 FILLER_4_92
*566 FILLER_5_110
*567 FILLER_5_113
*568 FILLER_5_125
*569 FILLER_5_137
*570 FILLER_5_149
*571 FILLER_5_161
*572 FILLER_5_167
*573 FILLER_5_3
*574 FILLER_5_31
*575 FILLER_5_39
*576 FILLER_5_43
*577 FILLER_5_55
*578 FILLER_5_57
*579 FILLER_5_69
*580 FILLER_5_7
*581 FILLER_5_73
*582 FILLER_5_98
*583 FILLER_6_104
*584 FILLER_6_11
*585 FILLER_6_116
*586 FILLER_6_128
*587 FILLER_6_141
*588 FILLER_6_148
*589 FILLER_6_16
*590 FILLER_6_160
*591 FILLER_6_25
*592 FILLER_6_29
*593 FILLER_6_3
*594 FILLER_6_41
*595 FILLER_6_53
*596 FILLER_6_65
*597 FILLER_6_77
*598 FILLER_6_82
*599 FILLER_6_85
*600 FILLER_6_92
*601 FILLER_7_105
*602 FILLER_7_111
*603 FILLER_7_113
*604 FILLER_7_118
*605 FILLER_7_125
*606 FILLER_7_129
*607 FILLER_7_146
*608 FILLER_7_155
*609 FILLER_7_162
*610 FILLER_7_3
*611 FILLER_7_33
*612 FILLER_7_45
*613 FILLER_7_53
*614 FILLER_7_57
*615 FILLER_7_68
*616 FILLER_7_72
*617 FILLER_7_8
*618 FILLER_7_93
*619 FILLER_8_100
*620 FILLER_8_104
*621 FILLER_8_11
*622 FILLER_8_126
*623 FILLER_8_130
*624 FILLER_8_134
*625 FILLER_8_141
*626 FILLER_8_164
*627 FILLER_8_17
*628 FILLER_8_26
*629 FILLER_8_29
*630 FILLER_8_3
*631 FILLER_8_37
*632 FILLER_8_56
*633 FILLER_8_68
*634 FILLER_8_74
*635 FILLER_8_78
*636 FILLER_8_85
*637 FILLER_8_93
*638 FILLER_9_107
*639 FILLER_9_111
*640 FILLER_9_113
*641 FILLER_9_118
*642 FILLER_9_12
*643 FILLER_9_130
*644 FILLER_9_145
*645 FILLER_9_156
*646 FILLER_9_163
*647 FILLER_9_167
*648 FILLER_9_23
*649 FILLER_9_3
*650 FILLER_9_46
*651 FILLER_9_50
*652 FILLER_9_54
*653 FILLER_9_57
*654 FILLER_9_82
*655 PHY_0
*656 PHY_1
*657 PHY_10
*658 PHY_11
*659 PHY_12
*660 PHY_13
*661 PHY_14
*662 PHY_15
*663 PHY_16
*664 PHY_17
*665 PHY_18
*666 PHY_19
*667 PHY_2
*668 PHY_20
*669 PHY_21
*670 PHY_22
*671 PHY_23
*672 PHY_24
*673 PHY_25
*674 PHY_26
*675 PHY_27
*676 PHY_28
*677 PHY_29
*678 PHY_3
*679 PHY_30
*680 PHY_31
*681 PHY_32
*682 PHY_33
*683 PHY_34
*684 PHY_35
*685 PHY_36
*686 PHY_37
*687 PHY_38
*688 PHY_39
*689 PHY_4
*690 PHY_40
*691 PHY_41
*692 PHY_42
*693 PHY_43
*694 PHY_44
*695 PHY_45
*696 PHY_46
*697 PHY_47
*698 PHY_48
*699 PHY_49
*700 PHY_5
*701 PHY_6
*702 PHY_7
*703 PHY_8
*704 PHY_9
*705 TAP_100
*706 TAP_101
*707 TAP_102
*708 TAP_103
*709 TAP_104
*710 TAP_105
*711 TAP_106
*712 TAP_107
*713 TAP_108
*714 TAP_109
*715 TAP_110
*716 TAP_111
*717 TAP_112
*718 TAP_113
*719 TAP_114
*720 TAP_115
*721 TAP_116
*722 TAP_50
*723 TAP_51
*724 TAP_52
*725 TAP_53
*726 TAP_54
*727 TAP_55
*728 TAP_56
*729 TAP_57
*730 TAP_58
*731 TAP_59
*732 TAP_60
*733 TAP_61
*734 TAP_62
*735 TAP_63
*736 TAP_64
*737 TAP_65
*738 TAP_66
*739 TAP_67
*740 TAP_68
*741 TAP_69
*742 TAP_70
*743 TAP_71
*744 TAP_72
*745 TAP_73
*746 TAP_74
*747 TAP_75
*748 TAP_76
*749 TAP_77
*750 TAP_78
*751 TAP_79
*752 TAP_80
*753 TAP_81
*754 TAP_82
*755 TAP_83
*756 TAP_84
*757 TAP_85
*758 TAP_86
*759 TAP_87
*760 TAP_88
*761 TAP_89
*762 TAP_90
*763 TAP_91
*764 TAP_92
*765 TAP_93
*766 TAP_94
*767 TAP_95
*768 TAP_96
*769 TAP_97
*770 TAP_98
*771 TAP_99
*772 _095_
*773 _096_
*774 _097_
*775 _098_
*776 _099_
*777 _100_
*778 _101_
*779 _102_
*780 _103_
*781 _104_
*782 _105_
*783 _106_
*784 _107_
*785 _108_
*786 _109_
*787 _110_
*788 _111_
*789 _112_
*790 _113_
*791 _114_
*792 _115_
*793 _116_
*794 _117_
*795 _118_
*796 _119_
*797 _120_
*798 _121_
*799 _122_
*800 _123_
*801 _124_
*802 _125__1
*803 _126_
*804 _127__10
*805 _128_
*806 _129_
*807 _130_
*808 _131_
*809 _132_
*810 _133_
*811 _134_
*812 _135_
*813 _136_
*814 _137_
*815 _138_
*816 _139_
*817 _140_
*818 _141_
*819 _142_
*820 _143_
*821 _144_
*822 _145_
*823 _146_
*824 _147_
*825 _148_
*826 _149_
*827 _150_
*828 _151_
*829 _152_
*830 _153_
*831 _154_
*832 _155_
*833 _156_
*834 _157_
*835 _158_
*836 _159_
*837 _160_
*838 _161_
*839 _162_
*840 _163_
*841 _164_
*842 _165_
*843 _166_
*844 _167_
*845 _168_
*846 _169_
*847 _170_
*848 _171_
*849 _172_
*850 _173__11
*851 _174__12
*852 _175__13
*853 _176_
*854 _177_
*855 _178_
*856 _179_
*857 _180_
*858 _181_
*859 _182_
*860 _183_
*861 _184__14
*862 _185__15
*863 _186__16
*864 _187__17
*865 _188__18
*866 _189__19
*867 _190__20
*868 _191__21
*869 _192__22
*870 _193__2
*871 _194__3
*872 _195__4
*873 _196__5
*874 _197__23
*875 _198_
*876 _199_
*877 _200_
*878 _201_
*879 _202_
*880 _203_
*881 _204_
*882 _205_
*883 _206_
*884 _207__6
*885 _208__7
*886 _209_
*887 _210_
*888 _211_
*889 _212_
*890 _213_
*891 _214_
*892 _215_
*893 _216__8
*894 _217__9
*895 _218_
*896 _219_
*897 _220_
*898 _221_
*899 _222_
*900 _223_
*901 _224_
*902 _225_
*903 _226_
*904 _227_
*905 _228_
*906 _229_
*907 _230__24
*908 _231_
*909 _232_
*910 _233_
*911 _234_
*912 _235_
*913 _236_
*914 _237_
*915 _238_
*916 _239_
*917 _240_
*918 _241_
*919 _242_
*920 _243_
*921 _244_
*922 _245_
*923 _246_
*924 _247_
*925 _248_
*926 _249_
*927 _250_
*928 _251_
*929 _252_
*930 _253_
*931 _254_
*932 _255_
*933 _256_
*934 _257_
*935 _258_
*936 _259_
*937 _260_
*938 _261_
*939 _262_
*940 _263_
*941 _264_
*942 _265_
*943 _266_
*944 _267_
*945 _268_
*946 _269_
*947 clkbuf_0__068_
*948 clkbuf_0_clk
*949 clkbuf_1_0__f_clk
*950 clkbuf_1_1__f_clk
*951 clkbuf_2_0__f__068_
*952 clkbuf_2_1__f__068_
*953 clkbuf_2_2__f__068_
*954 clkbuf_2_3__f__068_
*955 input1
*956 output10
*957 output11
*958 output12
*959 output13
*960 output2
*961 output3
*962 output4
*963 output5
*964 output6
*965 output7
*966 output8
*967 output9

*PORTS
clk I
io_out[0] O
io_out[10] O
io_out[11] O
io_out[1] O
io_out[2] O
io_out[3] O
io_out[4] O
io_out[5] O
io_out[6] O
io_out[7] O
io_out[8] O
io_out[9] O
rst I

*D_NET *1 0.00499555
*CONN
*P clk I
*I *948:A I *D sky130_fd_sc_hd__clkbuf_16
*CAP
1 clk 0.00122542
2 *948:A 0
3 *1:14 0.00127235
4 *1:10 0.00249778
5 *1:10 *775:A 0
6 *1:10 *929:D 0
7 *1:10 *932:CLK 0
8 *1:10 *932:D 0
9 *1:14 *773:A 0
10 *1:14 *775:A 0
11 *1:14 *807:A 0
12 *1:14 *807:B 0
13 *1:14 *828:C_N 0
14 *1:14 *859:A 0
15 *1:14 *931:RESET_B 0
16 *1:14 *942:D 0
17 *1:14 *25:71 0
18 *1:14 *61:53 0
19 *1:14 *68:6 0
20 *1:14 *68:8 0
21 *1:14 *68:39 0
22 *1:14 *71:16 0
23 *1:14 *73:6 0
24 *1:14 *75:39 0
*RES
1 clk *1:10 45.6071 
2 *1:10 *1:14 41.2679 
3 *1:14 *948:A 9.3 
*END

*D_NET *2 0.00116805
*CONN
*P io_out[0] O
*I *960:X O *D sky130_fd_sc_hd__buf_4
*CAP
1 io_out[0] 0.000584026
2 *960:X 0.000584026
*RES
1 *960:X io_out[0] 32.4607 
*END

*D_NET *3 0.0013163
*CONN
*P io_out[10] O
*I *961:X O *D sky130_fd_sc_hd__buf_4
*CAP
1 io_out[10] 0.000658148
2 *961:X 0.000658148
3 io_out[10] *810:A1 0
4 io_out[10] *872:A 0
5 io_out[10] *959:A 0
6 io_out[10] *961:A 0
7 io_out[10] *185:8 0
*RES
1 *961:X io_out[10] 35.1036 
*END

*D_NET *4 0.00170419
*CONN
*P io_out[11] O
*I *962:X O *D sky130_fd_sc_hd__buf_4
*CAP
1 io_out[11] 0.000852096
2 *962:X 0.000852096
*RES
1 *962:X io_out[11] 39.4429 
*END

*D_NET *5 0.00068272
*CONN
*P io_out[1] O
*I *963:X O *D sky130_fd_sc_hd__buf_4
*CAP
1 io_out[1] 0.00034136
2 *963:X 0.00034136
*RES
1 *963:X io_out[1] 26.8536 
*END

*D_NET *6 0.000761437
*CONN
*P io_out[2] O
*I *964:X O *D sky130_fd_sc_hd__buf_4
*CAP
1 io_out[2] 0.000380719
2 *964:X 0.000380719
3 io_out[2] *964:A 0
*RES
1 *964:X io_out[2] 27.675 
*END

*D_NET *7 0.000721873
*CONN
*P io_out[3] O
*I *965:X O *D sky130_fd_sc_hd__buf_4
*CAP
1 io_out[3] 0.000360936
2 *965:X 0.000360936
*RES
1 *965:X io_out[3] 27.2643 
*END

*D_NET *8 0.000722079
*CONN
*P io_out[4] O
*I *966:X O *D sky130_fd_sc_hd__buf_4
*CAP
1 io_out[4] 0.000361039
2 *966:X 0.000361039
3 io_out[4] *966:A 0
*RES
1 *966:X io_out[4] 27.2643 
*END

*D_NET *9 0.000643361
*CONN
*P io_out[5] O
*I *967:X O *D sky130_fd_sc_hd__buf_4
*CAP
1 io_out[5] 0.00032168
2 *967:X 0.00032168
*RES
1 *967:X io_out[5] 26.4429 
*END

*D_NET *10 0.000722079
*CONN
*P io_out[6] O
*I *956:X O *D sky130_fd_sc_hd__buf_4
*CAP
1 io_out[6] 0.000361039
2 *956:X 0.000361039
*RES
1 *956:X io_out[6] 27.2643 
*END

*D_NET *11 0.000879308
*CONN
*P io_out[7] O
*I *957:X O *D sky130_fd_sc_hd__buf_4
*CAP
1 io_out[7] 0.000439654
2 *957:X 0.000439654
*RES
1 *957:X io_out[7] 28.9071 
*END

*D_NET *12 0.00068272
*CONN
*P io_out[8] O
*I *958:X O *D sky130_fd_sc_hd__buf_4
*CAP
1 io_out[8] 0.00034136
2 *958:X 0.00034136
*RES
1 *958:X io_out[8] 26.8536 
*END

*D_NET *13 0.00135182
*CONN
*P io_out[9] O
*I *959:X O *D sky130_fd_sc_hd__buf_4
*CAP
1 io_out[9] 0.00067591
2 *959:X 0.00067591
3 io_out[9] *810:A0 0
4 io_out[9] *810:A1 0
5 io_out[9] *959:A 0
*RES
1 *959:X io_out[9] 33.8357 
*END

*D_NET *14 0.00109084
*CONN
*P rst I
*I *955:A I *D sky130_fd_sc_hd__clkbuf_2
*CAP
1 rst 0.000545422
2 *955:A 0.000545422
3 *955:A *795:A 0
*RES
1 rst *955:A 31.3536 
*END

*D_NET *17 0.000452947
*CONN
*I *946:D I *D sky130_fd_sc_hd__dfrtp_4
*I *801:Y O *D sky130_fd_sc_hd__inv_2
*CAP
1 *946:D 0.000226474
2 *801:Y 0.000226474
*RES
1 *801:Y *946:D 41.6536 
*END

*D_NET *18 0.000857369
*CONN
*I *906:A I *D sky130_fd_sc_hd__inv_2
*I *801:A I *D sky130_fd_sc_hd__inv_2
*I *946:Q O *D sky130_fd_sc_hd__dfrtp_4
*CAP
1 *906:A 0.000123424
2 *801:A 0.00030526
3 *946:Q 0
4 *18:4 0.000428684
5 *801:A *163:14 0
*RES
1 *946:Q *18:4 9.3 
2 *18:4 *801:A 34.2107 
3 *18:4 *906:A 11.9071 
*END

*D_NET *19 0.000154191
*CONN
*I *945:D I *D sky130_fd_sc_hd__dfrtp_4
*I *800:Y O *D sky130_fd_sc_hd__inv_2
*CAP
1 *945:D 7.70954e-05
2 *800:Y 7.70954e-05
3 *945:D *945:RESET_B 0
*RES
1 *800:Y *945:D 38.475 
*END

*D_NET *20 0.000901364
*CONN
*I *800:A I *D sky130_fd_sc_hd__inv_2
*I *905:A I *D sky130_fd_sc_hd__inv_2
*I *945:Q O *D sky130_fd_sc_hd__dfrtp_4
*CAP
1 *800:A 0.000341395
2 *905:A 2.0535e-05
3 *945:Q 8.87521e-05
4 *20:9 0.000450682
5 *800:A *804:A 0
6 *800:A *850:A 0
7 *800:A *161:39 0
8 *20:9 *161:39 0
9 *20:9 *163:14 0
*RES
1 *945:Q *20:9 29.4786 
2 *20:9 *905:A 9.72857 
3 *20:9 *800:A 16.425 
*END

*D_NET *21 0.0004633
*CONN
*I *944:D I *D sky130_fd_sc_hd__dfrtp_2
*I *809:A I *D sky130_fd_sc_hd__nor2_2
*I *789:Y O *D sky130_fd_sc_hd__inv_2
*CAP
1 *944:D 7.22887e-05
2 *809:A 8.4707e-05
3 *789:Y 7.46543e-05
4 *21:6 0.00023165
5 *809:A *809:B 0
6 *809:A *129:8 0
7 *944:D *163:14 0
8 *944:D *165:11 0
9 *21:6 *129:8 0
10 *21:6 *163:14 0
*RES
1 *789:Y *21:6 20.2464 
2 *21:6 *809:A 20.0679 
3 *21:6 *944:D 20.2464 
*END

*D_NET *22 0.000332805
*CONN
*I *943:D I *D sky130_fd_sc_hd__dfrtp_2
*I *772:Y O *D sky130_fd_sc_hd__inv_2
*CAP
1 *943:D 0.000166403
2 *772:Y 0.000166403
3 *943:D *161:10 0
*RES
1 *772:Y *943:D 40.2786 
*END

*D_NET *23 0.00687638
*CONN
*I *772:A I *D sky130_fd_sc_hd__inv_2
*I *834:S I *D sky130_fd_sc_hd__mux2_1
*I *903:A I *D sky130_fd_sc_hd__inv_2
*I *829:B1 I *D sky130_fd_sc_hd__o21ai_2
*I *828:A I *D sky130_fd_sc_hd__or3b_2
*I *826:C I *D sky130_fd_sc_hd__and3b_1
*I *822:S0 I *D sky130_fd_sc_hd__mux4_2
*I *827:A I *D sky130_fd_sc_hd__nor2_1
*I *823:S1 I *D sky130_fd_sc_hd__mux4_2
*I *943:Q O *D sky130_fd_sc_hd__dfrtp_2
*CAP
1 *772:A 0.000219651
2 *834:S 0
3 *903:A 0.000281715
4 *829:B1 0.000178173
5 *828:A 0
6 *826:C 0.000199789
7 *822:S0 0.000328487
8 *827:A 0
9 *823:S1 0.000270484
10 *943:Q 6.50276e-05
11 *23:70 0.000480423
12 *23:64 0.000205391
13 *23:45 0.000528276
14 *23:43 0.000373763
15 *23:21 0.000490808
16 *23:16 0.000710958
17 *23:11 0.00128024
18 *23:7 0.00126319
19 *772:A *940:RESET_B 0
20 *822:S0 *822:A1 0
21 *822:S0 *898:B 0
22 *822:S0 *61:53 0
23 *823:S1 *823:A3 0
24 *823:S1 *941:CLK 0
25 *823:S1 *83:16 0
26 *823:S1 *159:13 0
27 *826:C *61:53 0
28 *829:B1 *25:21 0
29 *829:B1 *25:25 0
30 *903:A *828:C_N 0
31 *903:A *831:A1 0
32 *903:A *25:11 0
33 *23:11 *834:A0 0
34 *23:11 *949:A 0
35 *23:11 *161:13 0
36 *23:16 *823:S0 0
37 *23:16 *834:A0 0
38 *23:16 *834:A1 0
39 *23:16 *835:A2 0
40 *23:16 *835:B1 0
41 *23:16 *77:15 0
42 *23:16 *134:8 0
43 *23:16 *143:10 0
44 *23:16 *147:10 0
45 *23:21 *941:CLK 0
46 *23:43 *25:52 0
47 *23:43 *77:15 0
48 *23:64 *822:A0 0
49 *23:64 *25:21 0
50 *23:64 *25:52 0
51 *23:64 *77:15 0
*RES
1 *943:Q *23:7 19.6571 
2 *23:7 *23:11 30.0536 
3 *23:11 *23:16 16.3571 
4 *23:16 *23:21 13.6607 
5 *23:21 *823:S1 33.8357 
6 *23:21 *827:A 9.3 
7 *23:16 *23:43 4.98214 
8 *23:43 *23:45 9 
9 *23:45 *822:S0 25.3036 
10 *23:45 *826:C 13.5321 
11 *23:43 *23:64 13.9107 
12 *23:64 *828:A 9.3 
13 *23:64 *23:70 0.428571 
14 *23:70 *829:B1 13.1214 
15 *23:70 *903:A 15.2107 
16 *23:11 *834:S 9.3 
17 *23:7 *772:A 23.4429 
*END

*D_NET *24 0.000272267
*CONN
*I *942:D I *D sky130_fd_sc_hd__dfrtp_2
*I *773:Y O *D sky130_fd_sc_hd__inv_2
*CAP
1 *942:D 0.000136134
2 *773:Y 0.000136134
3 *942:D *773:A 0
4 *942:D *942:CLK 0
5 *942:D *25:11 0
6 *1:14 *942:D 0
*RES
1 *773:Y *942:D 39.7071 
*END

*D_NET *25 0.00563854
*CONN
*I *773:A I *D sky130_fd_sc_hd__inv_2
*I *826:B I *D sky130_fd_sc_hd__and3b_1
*I *835:B2 I *D sky130_fd_sc_hd__a22o_2
*I *827:B I *D sky130_fd_sc_hd__nor2_1
*I *823:S0 I *D sky130_fd_sc_hd__mux4_2
*I *829:A1 I *D sky130_fd_sc_hd__o21ai_2
*I *822:S1 I *D sky130_fd_sc_hd__mux4_2
*I *830:A I *D sky130_fd_sc_hd__nand2_1
*I *828:B I *D sky130_fd_sc_hd__or3b_2
*I *942:Q O *D sky130_fd_sc_hd__dfrtp_2
*CAP
1 *773:A 0.000281157
2 *826:B 2.56688e-05
3 *835:B2 0.000365634
4 *827:B 2.56688e-05
5 *823:S0 0.000160086
6 *829:A1 0
7 *822:S1 0.000155007
8 *830:A 0.000105242
9 *828:B 0
10 *942:Q 0.000239147
11 *25:71 0.000580209
12 *25:52 0.000537856
13 *25:27 0.000358646
14 *25:25 0.00018396
15 *25:21 0.000617131
16 *25:13 0.000380754
17 *25:11 0.000746133
18 *25:5 0.000876245
19 *773:A *952:A 0
20 *773:A *155:6 0
21 *822:S1 *822:A1 0
22 *822:S1 *831:A3 0
23 *822:S1 *83:16 0
24 *823:S0 *75:39 0
25 *823:S0 *134:8 0
26 *835:B2 *784:A 0
27 *835:B2 *826:A_N 0
28 *835:B2 *941:D 0
29 *835:B2 *59:10 0
30 *835:B2 *75:39 0
31 *835:B2 *143:10 0
32 *25:11 *828:C_N 0
33 *25:11 *942:CLK 0
34 *25:13 *828:C_N 0
35 *25:13 *831:A1 0
36 *25:52 *831:A2 0
37 *25:52 *898:B 0
38 *25:52 *134:8 0
39 *25:71 *826:A_N 0
40 *25:71 *61:53 0
41 *25:71 *75:39 0
42 *25:71 *143:10 0
43 *829:B1 *25:21 0
44 *829:B1 *25:25 0
45 *903:A *25:11 0
46 *942:D *773:A 0
47 *942:D *25:11 0
48 *1:14 *773:A 0
49 *1:14 *25:71 0
50 *23:16 *823:S0 0
51 *23:43 *25:52 0
52 *23:64 *25:21 0
53 *23:64 *25:52 0
*RES
1 *942:Q *25:5 14.3536 
2 *25:5 *25:11 7.55357 
3 *25:11 *25:13 4.23214 
4 *25:13 *828:B 9.3 
5 *25:13 *25:21 3.83929 
6 *25:21 *25:25 1.78571 
7 *25:25 *25:27 2.17857 
8 *25:27 *830:A 11.4964 
9 *25:27 *822:S1 31.1036 
10 *25:25 *829:A1 9.3 
11 *25:21 *25:52 18.2321 
12 *25:52 *823:S0 12.8482 
13 *25:52 *827:B 18.8357 
14 *25:11 *25:71 13.9821 
15 *25:71 *835:B2 27.2821 
16 *25:71 *826:B 18.8357 
17 *25:5 *773:A 33.675 
*END

*D_NET *26 0.00028936
*CONN
*I *913:D I *D sky130_fd_sc_hd__dfrtp_4
*I *799:Y O *D sky130_fd_sc_hd__inv_2
*CAP
1 *913:D 0.00014468
2 *799:Y 0.00014468
3 *913:D *799:A 0
4 *913:D *954:A 0
5 *913:D *158:32 0
*RES
1 *799:Y *913:D 40.3679 
*END

*D_NET *27 0.00171948
*CONN
*I *875:A I *D sky130_fd_sc_hd__inv_2
*I *799:A I *D sky130_fd_sc_hd__inv_2
*I *913:Q O *D sky130_fd_sc_hd__dfrtp_4
*CAP
1 *875:A 0.000238165
2 *799:A 0.000226277
3 *913:Q 0.000395299
4 *27:9 0.000859741
5 *799:A *914:CLK 0
6 *799:A *950:A 0
7 *799:A *954:A 0
8 *799:A *158:32 0
9 *875:A *914:CLK 0
10 *27:9 *158:41 0
11 *913:D *799:A 0
*RES
1 *913:Q *27:9 26.55 
2 *27:9 *799:A 24.1929 
3 *27:9 *875:A 23.6571 
*END

*D_NET *28 0.000102853
*CONN
*I *920:D I *D sky130_fd_sc_hd__dfrtp_4
*I *796:Y O *D sky130_fd_sc_hd__inv_2
*CAP
1 *920:D 5.14266e-05
2 *796:Y 5.14266e-05
3 *920:D *920:CLK 0
4 *920:D *163:8 0
*RES
1 *796:Y *920:D 37.9393 
*END

*D_NET *29 0.000841117
*CONN
*I *922:D I *D sky130_fd_sc_hd__dfrtp_4
*I *798:Y O *D sky130_fd_sc_hd__inv_2
*CAP
1 *922:D 0.000420558
2 *798:Y 0.000420558
3 *922:D *883:A 0
4 *922:D *922:CLK 0
5 *922:D *162:84 0
*RES
1 *798:Y *922:D 46.1357 
*END

*D_NET *30 0.000612965
*CONN
*I *798:A I *D sky130_fd_sc_hd__inv_2
*I *879:A I *D sky130_fd_sc_hd__inv_2
*I *922:Q O *D sky130_fd_sc_hd__dfrtp_4
*CAP
1 *798:A 0.000112065
2 *879:A 0
3 *922:Q 0.000194417
4 *30:8 0.000306483
5 *30:8 *859:B 0
6 *30:8 *889:A 0
7 *30:8 *918:CLK 0
*RES
1 *922:Q *30:8 22.925 
2 *30:8 *879:A 18.3 
3 *30:8 *798:A 21.0857 
*END

*D_NET *31 0.00121555
*CONN
*I *914:D I *D sky130_fd_sc_hd__dfrtp_4
*I *790:Y O *D sky130_fd_sc_hd__inv_2
*CAP
1 *914:D 0
2 *790:Y 0.000607776
3 *31:11 0.000607776
4 *31:11 *852:A 0
5 *31:11 *913:RESET_B 0
6 *31:11 *128:8 0
7 *31:11 *162:8 0
8 *31:11 *162:46 0
*RES
1 *790:Y *31:11 41.3357 
2 *31:11 *914:D 9.3 
*END

*D_NET *32 0.000835742
*CONN
*I *790:A I *D sky130_fd_sc_hd__inv_2
*I *876:A I *D sky130_fd_sc_hd__inv_2
*I *914:Q O *D sky130_fd_sc_hd__dfrtp_4
*CAP
1 *790:A 0.000118967
2 *876:A 0.000105242
3 *914:Q 0.000193662
4 *32:8 0.000417871
5 *790:A *803:B 0
6 *790:A *128:8 0
7 *876:A *915:CLK 0
8 *876:A *162:13 0
9 *32:8 *915:CLK 0
10 *32:8 *946:CLK 0
11 *32:8 *128:8 0
*RES
1 *914:Q *32:8 23.2107 
2 *32:8 *876:A 20.4964 
3 *32:8 *790:A 21.4607 
*END

*D_NET *33 0.000453016
*CONN
*I *915:D I *D sky130_fd_sc_hd__dfrtp_4
*I *791:Y O *D sky130_fd_sc_hd__inv_2
*CAP
1 *915:D 0.000226508
2 *791:Y 0.000226508
3 *915:D *791:A 0
4 *915:D *946:CLK 0
*RES
1 *791:Y *915:D 41.6536 
*END

*D_NET *34 0.00132981
*CONN
*I *877:A I *D sky130_fd_sc_hd__inv_2
*I *791:A I *D sky130_fd_sc_hd__inv_2
*I *915:Q O *D sky130_fd_sc_hd__dfrtp_4
*CAP
1 *877:A 0.00035808
2 *791:A 0.000306826
3 *915:Q 0
4 *34:4 0.000664906
5 *791:A *946:CLK 0
6 *791:A *163:14 0