*SPEF "ieee 1481-1999"
*DESIGN "tt2_tholin_multiplier"
*DATE "11:11:11 Fri 11 11, 1111"
*VENDOR "OpenRCX"
*PROGRAM "Parallel Extraction"
*VERSION "1.0"
*DESIGN_FLOW "NAME_SCOPE LOCAL" "PIN_CAP NONE"
*DIVIDER /
*DELIMITER :
*BUS_DELIMITER []
*T_UNIT 1 NS
*C_UNIT 1 PF
*R_UNIT 1 OHM
*L_UNIT 1 HENRY

*NAME_MAP
*1 io_in[0]
*2 io_in[1]
*3 io_in[2]
*4 io_in[3]
*5 io_in[4]
*6 io_in[5]
*7 io_in[6]
*8 io_in[7]
*9 io_out[0]
*10 io_out[1]
*11 io_out[2]
*12 io_out[3]
*13 io_out[4]
*14 io_out[5]
*15 io_out[6]
*16 io_out[7]
*19 _000_
*20 _001_
*21 _002_
*22 _003_
*23 _004_
*24 _005_
*25 _006_
*26 _007_
*27 _008_
*28 _009_
*29 _010_
*30 _011_
*31 _012_
*32 _013_
*33 _014_
*34 _015_
*35 _016_
*36 _017_
*37 _018_
*38 _019_
*39 _020_
*40 _021_
*41 _022_
*42 _023_
*43 _024_
*44 _025_
*45 _026_
*46 _027_
*47 _028_
*48 _029_
*49 _030_
*50 _031_
*51 _032_
*52 _033_
*53 _034_
*54 _035_
*55 _036_
*56 _037_
*57 _038_
*58 _039_
*59 _040_
*60 _041_
*61 _042_
*62 _043_
*63 _044_
*64 _045_
*65 _046_
*66 _047_
*67 _048_
*68 _049_
*69 _050_
*70 _051_
*71 net1
*72 net10
*73 net11
*74 net12
*75 net13
*76 net14
*77 net15
*78 net16
*79 net2
*80 net3
*81 net4
*82 net5
*83 net6
*84 net7
*85 net8
*86 net9
*87 ANTENNA_input1_A
*88 ANTENNA_input2_A
*89 ANTENNA_input3_A
*90 ANTENNA_input4_A
*91 ANTENNA_input5_A
*92 ANTENNA_input6_A
*93 ANTENNA_input7_A
*94 ANTENNA_input8_A
*95 FILLER_0_19
*96 FILLER_0_25
*97 FILLER_0_29
*98 FILLER_0_3
*99 FILLER_0_37
*100 FILLER_0_51
*101 FILLER_0_55
*102 FILLER_0_57
*103 FILLER_0_67
*104 FILLER_0_75
*105 FILLER_0_82
*106 FILLER_0_85
*107 FILLER_0_9
*108 FILLER_0_99
*109 FILLER_10_21
*110 FILLER_10_27
*111 FILLER_10_29
*112 FILLER_10_3
*113 FILLER_10_38
*114 FILLER_10_42
*115 FILLER_10_48
*116 FILLER_10_65
*117 FILLER_10_75
*118 FILLER_10_83
*119 FILLER_10_85
*120 FILLER_10_97
*121 FILLER_11_100
*122 FILLER_11_11
*123 FILLER_11_20
*124 FILLER_11_3
*125 FILLER_11_32
*126 FILLER_11_44
*127 FILLER_11_49
*128 FILLER_11_55
*129 FILLER_11_57
*130 FILLER_11_64
*131 FILLER_11_76
*132 FILLER_11_88
*133 FILLER_12_13
*134 FILLER_12_25
*135 FILLER_12_29
*136 FILLER_12_3
*137 FILLER_12_41
*138 FILLER_12_49
*139 FILLER_12_57
*140 FILLER_12_69
*141 FILLER_12_7
*142 FILLER_12_81
*143 FILLER_12_85
*144 FILLER_12_97
*145 FILLER_13_101
*146 FILLER_13_11
*147 FILLER_13_23
*148 FILLER_13_3
*149 FILLER_13_35
*150 FILLER_13_47
*151 FILLER_13_55
*152 FILLER_13_57
*153 FILLER_13_69
*154 FILLER_13_81
*155 FILLER_13_93
*156 FILLER_14_14
*157 FILLER_14_26
*158 FILLER_14_29
*159 FILLER_14_3
*160 FILLER_14_40
*161 FILLER_14_52
*162 FILLER_14_64
*163 FILLER_14_76
*164 FILLER_14_85
*165 FILLER_14_97
*166 FILLER_15_101
*167 FILLER_15_22
*168 FILLER_15_26
*169 FILLER_15_3
*170 FILLER_15_36
*171 FILLER_15_48
*172 FILLER_15_57
*173 FILLER_15_65
*174 FILLER_15_77
*175 FILLER_15_89
*176 FILLER_16_11
*177 FILLER_16_15
*178 FILLER_16_19
*179 FILLER_16_26
*180 FILLER_16_29
*181 FILLER_16_3
*182 FILLER_16_41
*183 FILLER_16_53
*184 FILLER_16_64
*185 FILLER_16_76
*186 FILLER_16_85
*187 FILLER_16_97
*188 FILLER_17_102
*189 FILLER_17_19
*190 FILLER_17_3
*191 FILLER_17_31
*192 FILLER_17_43
*193 FILLER_17_51
*194 FILLER_17_55
*195 FILLER_17_57
*196 FILLER_17_62
*197 FILLER_17_7
*198 FILLER_17_74
*199 FILLER_17_86
*200 FILLER_17_98
*201 FILLER_18_11
*202 FILLER_18_23
*203 FILLER_18_27
*204 FILLER_18_29
*205 FILLER_18_3
*206 FILLER_18_41
*207 FILLER_18_53
*208 FILLER_18_65
*209 FILLER_18_77
*210 FILLER_18_83
*211 FILLER_18_85
*212 FILLER_18_97
*213 FILLER_19_101
*214 FILLER_19_15
*215 FILLER_19_27
*216 FILLER_19_3
*217 FILLER_19_39
*218 FILLER_19_51
*219 FILLER_19_55
*220 FILLER_19_57
*221 FILLER_19_69
*222 FILLER_19_81
*223 FILLER_19_93
*224 FILLER_1_101
*225 FILLER_1_11
*226 FILLER_1_18
*227 FILLER_1_25
*228 FILLER_1_3
*229 FILLER_1_32
*230 FILLER_1_44
*231 FILLER_1_57
*232 FILLER_1_69
*233 FILLER_1_81
*234 FILLER_1_93
*235 FILLER_20_15
*236 FILLER_20_27
*237 FILLER_20_29
*238 FILLER_20_3
*239 FILLER_20_41
*240 FILLER_20_53
*241 FILLER_20_65
*242 FILLER_20_77
*243 FILLER_20_83
*244 FILLER_20_85
*245 FILLER_20_97
*246 FILLER_21_101
*247 FILLER_21_19
*248 FILLER_21_3
*249 FILLER_21_31
*250 FILLER_21_43
*251 FILLER_21_55
*252 FILLER_21_57
*253 FILLER_21_69
*254 FILLER_21_7
*255 FILLER_21_81
*256 FILLER_21_93
*257 FILLER_22_11
*258 FILLER_22_23
*259 FILLER_22_27
*260 FILLER_22_29
*261 FILLER_22_3
*262 FILLER_22_41
*263 FILLER_22_53
*264 FILLER_22_65
*265 FILLER_22_77
*266 FILLER_22_83
*267 FILLER_22_85
*268 FILLER_22_97
*269 FILLER_23_101
*270 FILLER_23_19
*271 FILLER_23_3
*272 FILLER_23_31
*273 FILLER_23_43
*274 FILLER_23_55
*275 FILLER_23_57
*276 FILLER_23_69
*277 FILLER_23_7
*278 FILLER_23_81
*279 FILLER_23_93
*280 FILLER_24_11
*281 FILLER_24_23
*282 FILLER_24_27
*283 FILLER_24_29
*284 FILLER_24_3
*285 FILLER_24_41
*286 FILLER_24_53
*287 FILLER_24_57
*288 FILLER_24_69
*289 FILLER_24_81
*290 FILLER_24_85
*291 FILLER_24_97
*292 FILLER_2_102
*293 FILLER_2_15
*294 FILLER_2_22
*295 FILLER_2_29
*296 FILLER_2_3
*297 FILLER_2_36
*298 FILLER_2_45
*299 FILLER_2_56
*300 FILLER_2_64
*301 FILLER_2_73
*302 FILLER_2_81
*303 FILLER_2_85
*304 FILLER_2_94
*305 FILLER_3_13
*306 FILLER_3_20
*307 FILLER_3_3
*308 FILLER_3_31
*309 FILLER_3_35
*310 FILLER_3_41
*311 FILLER_3_47
*312 FILLER_3_54
*313 FILLER_3_57
*314 FILLER_3_65
*315 FILLER_3_73
*316 FILLER_3_83
*317 FILLER_3_9
*318 FILLER_3_95
*319 FILLER_4_12
*320 FILLER_4_19
*321 FILLER_4_25
*322 FILLER_4_29
*323 FILLER_4_3
*324 FILLER_4_39
*325 FILLER_4_47
*326 FILLER_4_54
*327 FILLER_4_69
*328 FILLER_4_76
*329 FILLER_4_85
*330 FILLER_4_97
*331 FILLER_5_101
*332 FILLER_5_11
*333 FILLER_5_23
*334 FILLER_5_3
*335 FILLER_5_30
*336 FILLER_5_42
*337 FILLER_5_54
*338 FILLER_5_57
*339 FILLER_5_69
*340 FILLER_5_7
*341 FILLER_5_81
*342 FILLER_5_93
*343 FILLER_6_14
*344 FILLER_6_26
*345 FILLER_6_29
*346 FILLER_6_3
*347 FILLER_6_41
*348 FILLER_6_50
*349 FILLER_6_62
*350 FILLER_6_74
*351 FILLER_6_82
*352 FILLER_6_85
*353 FILLER_6_97
*354 FILLER_7_102
*355 FILLER_7_19
*356 FILLER_7_3
*357 FILLER_7_31
*358 FILLER_7_49
*359 FILLER_7_55
*360 FILLER_7_57
*361 FILLER_7_65
*362 FILLER_7_7
*363 FILLER_7_74
*364 FILLER_7_86
*365 FILLER_7_98
*366 FILLER_8_11
*367 FILLER_8_18
*368 FILLER_8_26
*369 FILLER_8_29
*370 FILLER_8_3
*371 FILLER_8_38
*372 FILLER_8_50
*373 FILLER_8_62
*374 FILLER_8_70
*375 FILLER_8_82
*376 FILLER_8_85
*377 FILLER_8_97
*378 FILLER_9_15
*379 FILLER_9_22
*380 FILLER_9_3
*381 FILLER_9_36
*382 FILLER_9_45
*383 FILLER_9_53
*384 FILLER_9_57
*385 FILLER_9_62
*386 FILLER_9_7
*387 FILLER_9_71
*388 FILLER_9_83
*389 FILLER_9_95
*390 PHY_0
*391 PHY_1
*392 PHY_10
*393 PHY_11
*394 PHY_12
*395 PHY_13
*396 PHY_14
*397 PHY_15
*398 PHY_16
*399 PHY_17
*400 PHY_18
*401 PHY_19
*402 PHY_2
*403 PHY_20
*404 PHY_21
*405 PHY_22
*406 PHY_23
*407 PHY_24
*408 PHY_25
*409 PHY_26
*410 PHY_27
*411 PHY_28
*412 PHY_29
*413 PHY_3
*414 PHY_30
*415 PHY_31
*416 PHY_32
*417 PHY_33
*418 PHY_34
*419 PHY_35
*420 PHY_36
*421 PHY_37
*422 PHY_38
*423 PHY_39
*424 PHY_4
*425 PHY_40
*426 PHY_41
*427 PHY_42
*428 PHY_43
*429 PHY_44
*430 PHY_45
*431 PHY_46
*432 PHY_47
*433 PHY_48
*434 PHY_49
*435 PHY_5
*436 PHY_6
*437 PHY_7
*438 PHY_8
*439 PHY_9
*440 TAP_50
*441 TAP_51
*442 TAP_52
*443 TAP_53
*444 TAP_54
*445 TAP_55
*446 TAP_56
*447 TAP_57
*448 TAP_58
*449 TAP_59
*450 TAP_60
*451 TAP_61
*452 TAP_62
*453 TAP_63
*454 TAP_64
*455 TAP_65
*456 TAP_66
*457 TAP_67
*458 TAP_68
*459 TAP_69
*460 TAP_70
*461 TAP_71
*462 TAP_72
*463 TAP_73
*464 TAP_74
*465 TAP_75
*466 TAP_76
*467 TAP_77
*468 TAP_78
*469 TAP_79
*470 TAP_80
*471 TAP_81
*472 TAP_82
*473 TAP_83
*474 TAP_84
*475 TAP_85
*476 TAP_86
*477 TAP_87
*478 TAP_88
*479 TAP_89
*480 _052_
*481 _053_
*482 _054_
*483 _055_
*484 _056_
*485 _057_
*486 _058_
*487 _059_
*488 _060_
*489 _061_
*490 _062_
*491 _063_
*492 _064_
*493 _065_
*494 _066_
*495 _067_
*496 _068_
*497 _069_
*498 _070_
*499 _071_
*500 _072_
*501 _073_
*502 _074_
*503 _075_
*504 _076_
*505 _077_
*506 _078_
*507 _079_
*508 _080_
*509 _081_
*510 _082_
*511 _083_
*512 _084_
*513 _085_
*514 _086_
*515 _087_
*516 _088_
*517 _089_
*518 _090_
*519 _091_
*520 _092_
*521 _093_
*522 _094_
*523 _095_
*524 _096_
*525 _097_
*526 _098_
*527 _099_
*528 _100_
*529 _101_
*530 _102_
*531 _103_
*532 _104_
*533 _105_
*534 _106_
*535 _107_
*536 _108_
*537 _109_
*538 _110_
*539 _111_
*540 input1
*541 input2
*542 input3
*543 input4
*544 input5
*545 input6
*546 input7
*547 input8
*548 output10
*549 output11
*550 output12
*551 output13
*552 output14
*553 output15
*554 output16
*555 output9

*PORTS
io_in[0] I
io_in[1] I
io_in[2] I
io_in[3] I
io_in[4] I
io_in[5] I
io_in[6] I
io_in[7] I
io_out[0] O
io_out[1] O
io_out[2] O
io_out[3] O
io_out[4] O
io_out[5] O
io_out[6] O
io_out[7] O

*D_NET *1 0.00154539
*CONN
*P io_in[0] I
*I *87:DIODE I *D sky130_fd_sc_hd__diode_2
*I *540:A I *D sky130_fd_sc_hd__buf_2
*CAP
1 io_in[0] 0.000391941
2 *87:DIODE 0.000380754
3 *540:A 0
4 *1:10 0.000772695
5 *87:DIODE io_out[1] 0
6 *87:DIODE *548:A 0
7 *87:DIODE *71:8 0
8 *1:10 io_out[0] 0
9 *1:10 io_out[1] 0
10 *1:10 *548:A 0
*RES
1 io_in[0] *1:10 18.3241 
2 *1:10 *540:A 9.3 
3 *1:10 *87:DIODE 17.2464 
*END

*D_NET *2 0.00153235
*CONN
*P io_in[1] I
*I *88:DIODE I *D sky130_fd_sc_hd__diode_2
*I *541:A I *D sky130_fd_sc_hd__buf_2
*CAP
1 io_in[1] 0.000364326
2 *88:DIODE 0.00040185
3 *541:A 0
4 *2:10 0.000766176
5 *88:DIODE *489:A 0
6 *88:DIODE *537:B1 0
7 *88:DIODE *26:5 0
8 *88:DIODE *28:6 0
9 *88:DIODE *29:13 0
10 *2:10 *486:B1 0
11 *2:10 *71:22 0
*RES
1 io_in[1] *2:10 16.4153 
2 *2:10 *541:A 9.3 
3 *2:10 *88:DIODE 36.0857 
*END

*D_NET *3 0.000591536
*CONN
*P io_in[2] I
*I *89:DIODE I *D sky130_fd_sc_hd__diode_2
*I *542:A I *D sky130_fd_sc_hd__buf_6
*CAP
1 io_in[2] 0.000223428
2 *89:DIODE 7.23401e-05
3 *542:A 0
4 *3:8 0.000295768
5 *89:DIODE *79:27 0
6 *89:DIODE *82:14 0
*RES
1 io_in[2] *3:8 4.53905 
2 *3:8 *542:A 18.3 
3 *3:8 *89:DIODE 20.2464 
*END

*D_NET *4 0.000994986
*CONN
*P io_in[3] I
*I *90:DIODE I *D sky130_fd_sc_hd__diode_2
*I *543:A I *D sky130_fd_sc_hd__buf_4
*CAP
1 io_in[3] 0.000310344
2 *90:DIODE 0.000187149
3 *543:A 0
4 *4:8 0.000497493
5 *90:DIODE *82:8 0
6 *4:8 *82:8 0
*RES
1 io_in[3] *4:8 7.19913 
2 *4:8 *543:A 18.3 
3 *4:8 *90:DIODE 22.5321 
*END

*D_NET *5 0.000700228
*CONN
*P io_in[4] I
*I *544:A I *D sky130_fd_sc_hd__buf_4
*I *91:DIODE I *D sky130_fd_sc_hd__diode_2
*CAP
1 io_in[4] 0.000275374
2 *544:A 0
3 *91:DIODE 7.474e-05
4 *5:8 0.000350114
5 *91:DIODE *82:8 0
6 *91:DIODE *82:62 0
7 *5:8 *82:62 0
*RES
1 io_in[4] *5:8 6.28841 
2 *5:8 *91:DIODE 20.2464 
3 *5:8 *544:A 18.3 
*END

*D_NET *6 0.000549709
*CONN
*P io_in[5] I
*I *545:A I *D sky130_fd_sc_hd__clkbuf_4
*I *92:DIODE I *D sky130_fd_sc_hd__diode_2
*CAP
1 io_in[5] 0.000223428
2 *545:A 0
3 *92:DIODE 5.14266e-05
4 *6:8 0.000274855
5 *92:DIODE *83:6 0
6 *92:DIODE *85:10 0
*RES
1 io_in[5] *6:8 4.53905 
2 *6:8 *92:DIODE 19.6393 
3 *6:8 *545:A 18.3 
*END

*D_NET *7 0.000549709
*CONN
*P io_in[6] I
*I *546:A I *D sky130_fd_sc_hd__clkbuf_4
*I *93:DIODE I *D sky130_fd_sc_hd__diode_2
*CAP
1 io_in[6] 0.000223428
2 *546:A 0
3 *93:DIODE 5.14266e-05
4 *7:8 0.000274855
5 *93:DIODE *85:10 0
*RES
1 io_in[6] *7:8 4.53905 
2 *7:8 *93:DIODE 19.6393 
3 *7:8 *546:A 18.3 
*END

*D_NET *8 0.000922723
*CONN
*P io_in[7] I
*I *547:A I *D sky130_fd_sc_hd__clkbuf_4
*I *94:DIODE I *D sky130_fd_sc_hd__diode_2
*CAP
1 io_in[7] 0.000398278
2 *547:A 0
3 *94:DIODE 6.30833e-05
4 *8:8 0.000461362
5 *94:DIODE *85:10 0
*RES
1 io_in[7] *8:8 9.09262 
2 *8:8 *94:DIODE 19.9429 
3 *8:8 *547:A 18.3 
*END

*D_NET *9 0.00120741
*CONN
*P io_out[0] O
*I *555:X O *D sky130_fd_sc_hd__buf_4
*CAP
1 io_out[0] 0.000603705
2 *555:X 0.000603705
3 io_out[0] *482:B 0
4 io_out[0] *71:8 0
5 *1:10 io_out[0] 0
*RES
1 *555:X io_out[0] 32.8714 
*END

*D_NET *10 0.000721976
*CONN
*P io_out[1] O
*I *548:X O *D sky130_fd_sc_hd__buf_4
*CAP
1 io_out[1] 0.000360988
2 *548:X 0.000360988
3 io_out[1] *548:A 0
4 *87:DIODE io_out[1] 0
5 *1:10 io_out[1] 0
*RES
1 *548:X io_out[1] 27.2643 
*END

*D_NET *11 0.000807173
*CONN
*P io_out[2] O
*I *549:X O *D sky130_fd_sc_hd__buf_4
*CAP
1 io_out[2] 0.000403586
2 *549:X 0.000403586
*RES
1 *549:X io_out[2] 28.3357 
*END

*D_NET *12 0.000722079
*CONN
*P io_out[3] O
*I *550:X O *D sky130_fd_sc_hd__buf_4
*CAP
1 io_out[3] 0.000361039
2 *550:X 0.000361039
*RES
1 *550:X io_out[3] 27.2643 
*END

*D_NET *13 0.000722079
*CONN
*P io_out[4] O
*I *551:X O *D sky130_fd_sc_hd__buf_4
*CAP
1 io_out[4] 0.000361039
2 *551:X 0.000361039
*RES
1 *551:X io_out[4] 27.2643 
*END

*D_NET *14 0.000706397
*CONN
*P io_out[5] O
*I *552:X O *D sky130_fd_sc_hd__buf_4
*CAP
1 io_out[5] 0.000353199
2 *552:X 0.000353199
*RES
1 *552:X io_out[5] 27.1036 
*END

*D_NET *15 0.000721873
*CONN
*P io_out[6] O
*I *553:X O *D sky130_fd_sc_hd__buf_4
*CAP
1 io_out[6] 0.000360936
2 *553:X 0.000360936
*RES
1 *553:X io_out[6] 27.2643 
*END

*D_NET *16 0.00116805
*CONN
*P io_out[7] O
*I *554:X O *D sky130_fd_sc_hd__buf_4
*CAP
1 io_out[7] 0.000584026
2 *554:X 0.000584026
*RES
1 *554:X io_out[7] 32.4607 
*END

*D_NET *19 0.000279535
*CONN
*I *489:A I *D sky130_fd_sc_hd__or4_1
*I *480:Y O *D sky130_fd_sc_hd__inv_2
*CAP
1 *489:A 0.000139768
2 *480:Y 0.000139768
3 *489:A *486:A2 0
4 *489:A *489:B 0
5 *489:A *493:C 0
6 *88:DIODE *489:A 0
*RES
1 *480:Y *489:A 39.9036 
*END

*D_NET *20 0.000200804
*CONN
*I *489:B I *D sky130_fd_sc_hd__or4_1
*I *481:Y O *D sky130_fd_sc_hd__inv_2
*CAP
1 *489:B 0.000100402
2 *481:Y 0.000100402
3 *489:B *486:A2 0
4 *489:B *28:6 0
5 *489:A *489:B 0
*RES
1 *481:Y *489:B 39.1536 
*END

*D_NET *21 0.000738202
*CONN
*I *483:A I *D sky130_fd_sc_hd__inv_2
*I *489:C I *D sky130_fd_sc_hd__or4_1
*I *486:A1 I *D sky130_fd_sc_hd__o21a_1
*I *482:Y O *D sky130_fd_sc_hd__nand2_1
*CAP
1 *483:A 0.000162141
2 *489:C 8.39111e-05
3 *486:A1 2.56688e-05
4 *482:Y 0
5 *21:8 0.00020696
6 *21:4 0.000259521
7 *483:A *555:A 0
8 *486:A1 *486:A2 0
9 *486:A1 *82:25 0
10 *489:C *486:A2 0
11 *489:C *493:C 0
12 *21:8 *548:A 0
13 *21:8 *555:A 0
14 *21:8 *71:22 0
*RES
1 *482:Y *21:4 9.3 
2 *21:4 *21:8 11.4821 
3 *21:8 *486:A1 18.8357 
4 *21:8 *489:C 20.55 
5 *21:4 *483:A 12.7464 
*END

*D_NET *22 0.000438457
*CONN
*I *486:B1 I *D sky130_fd_sc_hd__o21a_1
*I *484:X O *D sky130_fd_sc_hd__a22o_1
*CAP
1 *486:B1 0.000219228
2 *484:X 0.000219228
3 *486:B1 *71:22 0
4 *486:B1 *79:8 0
5 *486:B1 *82:25 0
6 *2:10 *486:B1 0
*RES
1 *484:X *486:B1 42.0464 
*END

*D_NET *23 0.00113855
*CONN
*I *491:A1 I *D sky130_fd_sc_hd__a21o_1
*I *489:D I *D sky130_fd_sc_hd__or4_1
*I *486:A2 I *D sky130_fd_sc_hd__o21a_1
*I *485:Y O *D sky130_fd_sc_hd__nand2_1
*CAP
1 *491:A1 6.20329e-05
2 *489:D 2.56688e-05
3 *486:A2 0.000174343
4 *485:Y 0.000104386
5 *23:8 0.000402856
6 *23:5 0.000369263
7 *486:A2 *82:25 0
8 *491:A1 *488:A 0
9 *23:5 *488:A 0
10 *23:8 *481:A 0
11 *23:8 *484:A2 0
12 *23:8 *71:25 0
13 *23:8 *79:8 0
14 *23:8 *83:14 0
15 *486:A1 *486:A2 0
16 *489:A *486:A2 0
17 *489:B *486:A2 0
18 *489:C *486:A2 0
*RES
1 *485:Y *23:5 11.4786 
2 *23:5 *23:8 14.2857 
3 *23:8 *486:A2 22.5679 
4 *23:8 *489:D 18.8357 
5 *23:5 *491:A1 10.6571 
*END

*D_NET *24 0.00290169
*CONN
*I *509:A I *D sky130_fd_sc_hd__or2_1
*I *492:B1 I *D sky130_fd_sc_hd__a21oi_2
*I *493:A I *D sky130_fd_sc_hd__and3_1
*I *508:A I *D sky130_fd_sc_hd__nor2_1
*I *487:Y O *D sky130_fd_sc_hd__nand2_2
*CAP
1 *509:A 0.000354329
2 *492:B1 0
3 *493:A 0.00022534
4 *508:A 0.000123722
5 *487:Y 2.56688e-05
6 *24:20 0.000707979
7 *24:19 0.00107611
8 *24:5 0.000388538
9 *493:A *493:B 0
10 *493:A *493:C 0
11 *493:A *518:B 0
12 *508:A *491:B1 0
13 *508:A *80:30 0
14 *509:A *509:B 0
15 *509:A *512:B 0
16 *509:A *512:D 0
17 *509:A *517:B2 0
18 *509:A *45:5 0
19 *509:A *48:8 0
20 *24:19 *46:11 0
21 *24:20 *517:A1 0
22 *24:20 *517:B1 0
23 *24:20 *518:B 0
24 *24:20 *28:6 0
25 *24:20 *48:8 0
*RES
1 *487:Y *24:5 9.83571 
2 *24:5 *508:A 30.3893 
3 *24:5 *24:19 14.0536 
4 *24:19 *24:20 12.5714 
5 *24:20 *493:A 23.4607 
6 *24:20 *492:B1 18.3 
7 *24:19 *509:A 26.0321 
*END

*D_NET *25 0.000485996
*CONN
*I *491:A2 I *D sky130_fd_sc_hd__a21o_1
*I *488:Y O *D sky130_fd_sc_hd__nand2_1
*CAP
1 *491:A2 0.000242998
2 *488:Y 0.000242998
3 *491:A2 *488:A 0
4 *491:A2 *488:B 0
5 *491:A2 *491:B1 0
*RES
1 *488:Y *491:A2 23.6714 
*END

*D_NET *26 0.000747927
*CONN
*I *492:A1 I *D sky130_fd_sc_hd__a21oi_2
*I *493:B I *D sky130_fd_sc_hd__and3_1
*I *489:X O *D sky130_fd_sc_hd__or4_1
*CAP
1 *492:A1 3.50807e-05
2 *493:B 0.000195138
3 *489:X 0.000143745
4 *26:5 0.000373963
5 *493:B *493:C 0
6 *26:5 *492:A2 0
7 *88:DIODE *26:5 0
8 *493:A *493:B 0
*RES
1 *489:X *26:5 12.3 
2 *26:5 *493:B 31.6393 
3 *26:5 *492:A1 10.0321 
*END

*D_NET *27 0.00353795
*CONN
*I *504:A I *D sky130_fd_sc_hd__nand3_2
*I *503:B1 I *D sky130_fd_sc_hd__a221o_2
*I *511:B1 I *D sky130_fd_sc_hd__a21o_1
*I *502:A I *D sky130_fd_sc_hd__nand3_2
*I *520:A2 I *D sky130_fd_sc_hd__a21boi_2
*I *491:B1 I *D sky130_fd_sc_hd__a21o_1
*I *490:X O *D sky130_fd_sc_hd__o2111a_4
*CAP
1 *504:A 0
2 *503:B1 8.17123e-05
3 *511:B1 0.000225693
4 *502:A 0.000187118
5 *520:A2 0
6 *491:B1 0.000513193
7 *490:X 0
8 *27:32 0.000222627
9 *27:29 0.000381369
10 *27:26 0.00031803
11 *27:22 0.000605582
12 *27:5 0.00100262
13 *491:B1 *488:A 0
14 *491:B1 *496:A 0
15 *491:B1 *508:B 0
16 *491:B1 *512:C 0
17 *491:B1 *513:B1 0
18 *491:B1 *32:8 0
19 *491:B1 *46:11 0
20 *491:B1 *79:36 0
21 *491:B1 *80:12 0
22 *491:B1 *80:30 0
23 *502:A *502:C 0
24 *502:A *47:8 0
25 *502:A *55:5 0
26 *502:A *81:34 0
27 *502:A *81:56 0
28 *503:B1 *503:A1 0
29 *503:B1 *503:B2 0
30 *503:B1 *503:C1 0
31 *503:B1 *36:29 0
32 *503:B1 *40:13 0
33 *511:B1 *511:A1 0
34 *511:B1 *511:A2 0
35 *511:B1 *47:8 0
36 *511:B1 *81:56 0
37 *27:22 *496:A 0
38 *27:22 *503:C1 0
39 *27:22 *32:8 0
40 *27:22 *35:11 0
41 *27:22 *40:13 0
42 *27:22 *80:90 0
43 *27:26 *503:C1 0
44 *27:26 *40:13 0
45 *27:29 *502:B 0
46 *27:29 *503:B2 0
47 *27:29 *511:A1 0
48 *27:29 *38:8 0
49 *27:29 *47:8 0
50 *27:32 *502:C 0
51 *27:32 *81:34 0
52 *491:A2 *491:B1 0
53 *508:A *491:B1 0
*RES
1 *490:X *27:5 18.3 
2 *27:5 *491:B1 31.4071 
3 *27:5 *27:22 21.0714 
4 *27:22 *27:26 2.60714 
5 *27:26 *27:29 12.1607 
6 *27:29 *27:32 9.74107 
7 *27:32 *520:A2 9.3 
8 *27:32 *502:A 31.7196 
9 *27:29 *511:B1 23.55 
10 *27:26 *503:B1 11.0679 
11 *27:22 *504:A 9.3 
*END

*D_NET *28 0.0010773
*CONN
*I *492:A2 I *D sky130_fd_sc_hd__a21oi_2
*I *493:C I *D sky130_fd_sc_hd__and3_1
*I *491:X O *D sky130_fd_sc_hd__a21o_1
*CAP
1 *492:A2 4.53482e-05
2 *493:C 0.000339367
3 *491:X 0.000153937
4 *28:6 0.000538652
5 *493:C *482:A 0
6 *493:C *494:A 0
7 *28:6 *481:A 0
8 *28:6 *537:B1 0
9 *88:DIODE *28:6 0
10 *489:A *493:C 0
11 *489:B *28:6 0
12 *489:C *493:C 0
13 *493:A *493:C 0
14 *493:B *493:C 0
15 *24:20 *28:6 0
16 *26:5 *492:A2 0
*RES
1 *491:X *28:6 22.3714 
2 *28:6 *493:C 25.9607 
3 *28:6 *492:A2 19.2464 
*END

*D_NET *29 0.00106717
*CONN
*I *537:B1 I *D sky130_fd_sc_hd__a21oi_1
*I *518:A I *D sky130_fd_sc_hd__and3_1
*I *494:A I *D sky130_fd_sc_hd__nor2_1
*I *492:Y O *D sky130_fd_sc_hd__a21oi_2
*CAP
1 *537:B1 0.000184681
2 *518:A 0.000143745
3 *494:A 0.000167805
4 *492:Y 0
5 *29:13 0.000365779
6 *29:5 0.000205158
7 *537:B1 *538:B 0
8 *88:DIODE *537:B1 0
9 *88:DIODE *29:13 0
10 *493:C *494:A 0
11 *28:6 *537:B1 0
*RES
1 *492:Y *29:5 18.3 
2 *29:5 *494:A 22.675 
3 *29:5 *29:13 1.03571 
4 *29:13 *518:A 21.3 
5 *29:13 *537:B1 22.5321 
*END

*D_NET *30 0.000126098
*CONN
*I *494:B I *D sky130_fd_sc_hd__nor2_1
*I *493:X O *D sky130_fd_sc_hd__and3_1
*CAP
1 *494:B 6.3049e-05
2 *493:X 6.3049e-05
*RES
1 *493:X *494:B 38.2429 
*END

*D_NET *31 0.00138322
*CONN
*I *497:A I *D sky130_fd_sc_hd__nor2_1
*I *533:A1 I *D sky130_fd_sc_hd__a21oi_2
*I *498:A I *D sky130_fd_sc_hd__xnor2_2
*I *495:Y O *D sky130_fd_sc_hd__nand2_2
*CAP
1 *497:A 0.00010731
2 *533:A1 0.000239912
3 *498:A 0
4 *495:Y 0.000259682
5 *31:15 0.000431929
6 *31:7 0.000344389
7 *497:A *497:B 0
8 *497:A *526:B 0
9 *497:A *60:8 0
10 *533:A1 *497:B 0
11 *533:A1 *526:B 0
12 *533:A1 *533:A2 0
13 *533:A1 *66:10 0
14 *31:7 *32:32 0
15 *31:7 *34:8 0
*RES
1 *495:Y *31:7 14.7821 
2 *31:7 *498:A 9.3 
3 *31:7 *31:15 10.7679 
4 *31:15 *533:A1 24.4786 
5 *31:15 *497:A 21.1571 
*END

*D_NET *32 0.00258524
*CONN
*I *498:B I *D sky130_fd_sc_hd__xnor2_2
*I *497:B I *D sky130_fd_sc_hd__nor2_1
*I *509:B I *D sky130_fd_sc_hd__or2_1
*I *508:B I *D sky130_fd_sc_hd__nor2_1
*I *496:Y O *D sky130_fd_sc_hd__nand2_2
*CAP
1 *498:B 0
2 *497:B 0.000214045
3 *509:B 0.000130476
4 *508:B 7.474e-05
5 *496:Y 0.000155058
6 *32:32 0.000532766
7 *32:18 0.000848775
8 *32:8 0.000629376
9 *508:B *512:C 0
10 *508:B *513:B1 0
11 *509:B *47:10 0
12 *32:8 *513:B1 0
13 *32:8 *84:32 0
14 *32:18 *513:A2 0
15 *32:18 *513:B1 0
16 *32:18 *49:8 0
17 *32:18 *80:47 0
18 *32:32 *34:8 0
19 *32:32 *49:8 0
20 *491:B1 *508:B 0
21 *491:B1 *32:8 0
22 *497:A *497:B 0
23 *509:A *509:B 0
24 *533:A1 *497:B 0
25 *27:22 *32:8 0
26 *31:7 *32:32 0
*RES
1 *496:Y *32:8 22.1036 
2 *32:8 *508:B 20.2464 
3 *32:8 *32:18 17.3393 
4 *32:18 *509:B 30.3 
5 *32:18 *32:32 6.71429 
6 *32:32 *497:B 32.3357 
7 *32:32 *498:B 9.3 
*END

*D_NET *33 0.000707728
*CONN
*I *527:A1 I *D sky130_fd_sc_hd__o21a_1
*I *526:A I *D sky130_fd_sc_hd__or3_1
*I *497:Y O *D sky130_fd_sc_hd__nor2_1
*CAP
1 *527:A1 0
2 *526:A 0.000126122
3 *497:Y 0.000227742
4 *33:8 0.000353864
5 *526:A *526:C 0
6 *526:A *59:10 0
7 *526:A *60:8 0
8 *526:A *62:8 0
9 *526:A *66:10 0
10 *33:8 *41:10 0
11 *33:8 *59:10 0
12 *33:8 *60:8 0
*RES
1 *497:Y *33:8 23.55 
2 *33:8 *526:A 21.3893 
3 *33:8 *527:A1 18.3 
*END

*D_NET *34 0.00107235
*CONN
*I *505:B1 I *D sky130_fd_sc_hd__a21oi_1
*I *506:B1 I *D sky130_fd_sc_hd__a21o_1
*I *507:A I *D sky130_fd_sc_hd__nand3_1
*I *498:Y O *D sky130_fd_sc_hd__xnor2_2
*CAP
1 *505:B1 0.000180965
2 *506:B1 0.000100108
3 *507:A 0
4 *498:Y 0.000194417
5 *34:17 0.000341757
6 *34:8 0.0002551
7 *505:B1 *505:A1 0
8 *505:B1 *41:10 0
9 *506:B1 *505:A1 0
10 *34:8 *532:A 0
11 *34:8 *532:B 0
12 *34:17 *507:B 0
13 *34:17 *532:A 0
14 *34:17 *532:B 0
15 *31:7 *34:8 0
16 *32:32 *34:8 0
*RES
1 *498:Y *34:8 22.925 
2 *34:8 *507:A 18.3 
3 *34:8 *34:17 10.6429 
4 *34:17 *506:B1 11.3893 
5 *34:17 *505:B1 13.1393 
*END

*D_NET *35 0.00119053
*CONN
*I *503:C1 I *D sky130_fd_sc_hd__a221o_2
*I *504:B I *D sky130_fd_sc_hd__nand3_2
*I *499:Y O *D sky130_fd_sc_hd__nand2_1
*CAP
1 *503:C1 0.000243853
2 *504:B 0
3 *499:Y 0.000351413
4 *35:11 0.000595266
5 *503:C1 *503:A1 0
6 *503:C1 *504:C 0
7 *503:C1 *36:17 0
8 *503:C1 *36:29 0
9 *35:11 *501:C 0
10 *35:11 *511:A1 0
11 *35:11 *511:A2 0
12 *35:11 *36:17 0
13 *503:B1 *503:C1 0
14 *27:22 *503:C1 0
15 *27:22 *35:11 0
16 *27:26 *503:C1 0
*RES
1 *499:Y *35:11 35.5143 
2 *35:11 *504:B 9.3 
3 *35:11 *503:C1 14.3893 
*END

*D_NET *36 0.00190141
*CONN
*I *502:B I *D sky130_fd_sc_hd__nand3_2
*I *503:B2 I *D sky130_fd_sc_hd__a221o_2
*I *511:A1 I *D sky130_fd_sc_hd__a21o_1
*I *504:C I *D sky130_fd_sc_hd__nand3_2
*I *500:X O *D sky130_fd_sc_hd__a22o_2
*CAP
1 *502:B 0.000318227
2 *503:B2 3.28192e-05
3 *511:A1 0.00014468
4 *504:C 6.05355e-05
5 *500:X 0.000134119
6 *36:29 0.000569017
7 *36:17 0.000405004
8 *36:5 0.000237008
9 *502:B *502:C 0
10 *502:B *38:8 0
11 *502:B *47:8 0
12 *503:B2 *38:8 0
13 *511:A1 *511:A2 0
14 *36:5 *500:A2 0
15 *36:5 *503:A1 0
16 *36:17 *503:A1 0
17 *36:29 *503:A1 0
18 *503:B1 *503:B2 0
19 *503:B1 *36:29 0
20 *503:C1 *504:C 0
21 *503:C1 *36:17 0
22 *503:C1 *36:29 0
23 *511:B1 *511:A1 0
24 *27:29 *502:B 0
25 *27:29 *503:B2 0
26 *27:29 *511:A1 0
27 *35:11 *511:A1 0
28 *35:11 *36:17 0
*RES
1 *500:X *36:5 12.3 
2 *36:5 *504:C 10.6929 
3 *36:5 *36:17 0.946429 
4 *36:17 *511:A1 31.0679 
5 *36:17 *36:29 13.6429 
6 *36:29 *503:B2 19.1616 
7 *36:29 *502:B 25.3179 
*END

*D_NET *37 0.00130069
*CONN
*I *502:C I *D sky130_fd_sc_hd__nand3_2
*I *520:B1_N I *D sky130_fd_sc_hd__a21boi_2
*I *511:A2 I *D sky130_fd_sc_hd__a21o_1
*I *501:Y O *D sky130_fd_sc_hd__nand4_4
*CAP
1 *502:C 0.000408561
2 *520:B1_N 0
3 *511:A2 9.80362e-05
4 *501:Y 0
5 *37:13 0.000552307
6 *37:4 0.000241781
7 *502:C *520:A1 0
8 *502:C *55:5 0
9 *502:C *81:34 0
10 *37:13 *81:34 0
11 *502:A *502:C 0
12 *502:B *502:C 0
13 *511:A1 *511:A2 0
14 *511:B1 *511:A2 0
15 *27:32 *502:C 0
16 *35:11 *511:A2 0
*RES
1 *501:Y *37:4 9.3 
2 *37:4 *511:A2 29.8536 
3 *37:4 *37:13 3 
4 *37:13 *520:B1_N 9.3 
5 *37:13 *502:C 18.1036 
*END

*D_NET *38 0.00189784
*CONN
*I *512:A I *D sky130_fd_sc_hd__nand4_2
*I *517:B2 I *D sky130_fd_sc_hd__a22o_1
*I *513:A1 I *D sky130_fd_sc_hd__a31o_1
*I *502:Y O *D sky130_fd_sc_hd__nand3_2
*CAP
1 *512:A 2.95703e-05
2 *517:B2 0.000227431
3 *513:A1 1.00282e-05
4 *502:Y 0.000595494
5 *38:19 0.000343398
6 *38:8 0.000691919
7 *512:A *517:A1 0
8 *512:A *517:B1 0
9 *517:B2 *517:A1 0
10 *517:B2 *517:B1 0
11 *517:B2 *46:11 0
12 *38:8 *47:8 0
13 *38:19 *47:10 0
14 *502:B *38:8 0
15 *503:B2 *38:8 0
16 *509:A *517:B2 0
17 *27:29 *38:8 0
*RES
1 *502:Y *38:8 32.9161 
2 *38:8 *513:A1 18.5768 
3 *38:8 *38:19 2.89286 
4 *38:19 *517:B2 23.9339 
5 *38:19 *512:A 19.1839 
*END

*D_NET *39 0.00118143
*CONN
*I *506:A1 I *D sky130_fd_sc_hd__a21o_1
*I *505:A1 I *D sky130_fd_sc_hd__a21oi_1
*I *507:B I *D sky130_fd_sc_hd__nand3_1
*I *503:X O *D sky130_fd_sc_hd__a221o_2
*CAP
1 *506:A1 0
2 *505:A1 0.000167275
3 *507:B 7.474e-05
4 *503:X 0.000348698
5 *39:17 0.000167275
6 *39:8 0.000423438
7 *505:A1 *505:A2 0
8 *505:A1 *40:27 0
9 *507:B *532:A 0
10 *507:B *532:B 0
11 *39:8 *503:A2 0
12 *39:8 *532:A 0
13 *39:8 *532:B 0
14 *505:B1 *505:A1 0
15 *506:B1 *505:A1 0
16 *34:17 *507:B 0
*RES
1 *503:X *39:8 26.4964 
2 *39:8 *507:B 20.2464 
3 *39:8 *39:17 9 
4 *39:17 *505:A1 12.7286 
5 *39:17 *506:A1 9.3 
*END

*D_NET *40 0.00179629
*CONN
*I *505:A2 I *D sky130_fd_sc_hd__a21oi_1
*I *506:A2 I *D sky130_fd_sc_hd__a21o_1
*I *507:C I *D sky130_fd_sc_hd__nand3_1
*I *504:Y O *D sky130_fd_sc_hd__nand3_2
*CAP
1 *505:A2 0.000104386
2 *506:A2 0
3 *507:C 0.000112065
4 *504:Y 0.000582439
5 *40:27 0.000203639
6 *40:13 0.000793757
7 *507:C *42:6 0
8 *507:C *80:52 0
9 *507:C *84:16 0
10 *40:13 *503:A1 0
11 *40:13 *47:8 0
12 *40:13 *80:52 0
13 *503:B1 *40:13 0
14 *505:A1 *505:A2 0
15 *505:A1 *40:27 0
16 *27:22 *40:13 0
17 *27:26 *40:13 0
*RES
1 *504:Y *40:13 40.2643 
2 *40:13 *507:C 30.0857 
3 *40:13 *40:27 2.19643 
4 *40:27 *506:A2 9.3 
5 *40:27 *505:A2 11.4786 
*END

*D_NET *41 0.00140902
*CONN
*I *527:A2 I *D sky130_fd_sc_hd__o21a_1
*I *526:B I *D sky130_fd_sc_hd__or3_1
*I *505:Y O *D sky130_fd_sc_hd__a21oi_1
*CAP
1 *527:A2 0
2 *526:B 0.000243358
3 *505:Y 0.000461151
4 *41:10 0.000704509
5 *526:B *527:B1 0
6 *526:B *60:8 0
7 *526:B *66:10 0
8 *41:10 *59:10 0
9 *41:10 *60:8 0
10 *497:A *526:B 0
11 *505:B1 *41:10 0
12 *533:A1 *526:B 0
13 *33:8 *41:10 0
*RES
1 *505:Y *41:10 37.8536 
2 *41:10 *526:B 33.1393 
3 *41:10 *527:A2 9.3 
*END

*D_NET *42 0.00125216
*CONN
*I *515:A1 I *D sky130_fd_sc_hd__a21o_1
*I *514:A I *D sky130_fd_sc_hd__and3_1
*I *506:X O *D sky130_fd_sc_hd__a21o_1
*CAP
1 *515:A1 2.56688e-05
2 *514:A 0.000190028
3 *506:X 0.000410384
4 *42:6 0.000626081
5 *514:A *514:B 0
6 *514:A *514:C 0
7 *514:A *43:8 0
8 *514:A *53:6 0
9 *42:6 *513:A2 0
10 *42:6 *517:A2 0
11 *42:6 *43:8 0
12 *42:6 *47:8 0
13 *42:6 *48:8 0
14 *42:6 *53:6 0
15 *42:6 *80:52 0
16 *42:6 *84:16 0
17 *507:C *42:6 0
*RES
1 *506:X *42:6 29.05 
2 *42:6 *514:A 23.0143 
3 *42:6 *515:A1 18.8357 
*END

*D_NET *43 0.00113057
*CONN
*I *515:A2 I *D sky130_fd_sc_hd__a21o_1
*I *514:B I *D sky130_fd_sc_hd__and3_1
*I *507:Y O *D sky130_fd_sc_hd__nand3_1
*CAP
1 *515:A2 2.56688e-05
2 *514:B 0.000139768
3 *507:Y 0.000399849
4 *43:8 0.000565285
5 *514:B *514:C 0
6 *43:8 *495:A 0
7 *43:8 *532:B 0
8 *43:8 *49:8 0
9 *514:A *514:B 0
10 *514:A *43:8 0
11 *42:6 *43:8 0
*RES
1 *507:Y *43:8 28.4786 
2 *43:8 *514:B 21.6036 
3 *43:8 *515:A2 18.8357 
*END

*D_NET *44 0.000610451
*CONN
*I *513:B1 I *D sky130_fd_sc_hd__a31o_1
*I *508:Y O *D sky130_fd_sc_hd__nor2_1
*CAP
1 *513:B1 0.000305225
2 *508:Y 0.000305225
3 *513:B1 *80:47 0
4 *491:B1 *513:B1 0
5 *508:B *513:B1 0
6 *32:8 *513:B1 0
7 *32:18 *513:B1 0
*RES
1 *508:Y *513:B1 43.2964 
*END

*D_NET *45 0.000616642
*CONN
*I *517:A1 I *D sky130_fd_sc_hd__a22o_1
*I *512:B I *D sky130_fd_sc_hd__nand4_2
*I *509:X O *D sky130_fd_sc_hd__or2_1
*CAP
1 *517:A1 0.000121367
2 *512:B 6.58832e-05
3 *509:X 0.000121071
4 *45:5 0.000308321
5 *512:B *512:D 0
6 *517:A1 *517:B1 0
7 *517:A1 *48:8 0
8 *45:5 *48:8 0
9 *509:A *512:B 0
10 *509:A *45:5 0
11 *512:A *517:A1 0
12 *517:B2 *517:A1 0
13 *24:20 *517:A1 0
*RES
1 *509:X *45:5 11.8893 
2 *45:5 *512:B 10.675 
3 *45:5 *517:A1 30.4607 
*END

*D_NET *46 0.00207982
*CONN
*I *512:C I *D sky130_fd_sc_hd__nand4_2
*I *513:A2 I *D sky130_fd_sc_hd__a31o_1
*I *517:A2 I *D sky130_fd_sc_hd__a22o_1
*I *510:X O *D sky130_fd_sc_hd__a22o_1
*CAP
1 *512:C 2.56962e-05
2 *513:A2 0.00043697
3 *517:A2 7.25811e-05
4 *510:X 0.00030118
5 *46:11 0.000713031
6 *46:7 0.000530356
7 *513:A2 *517:B1 0
8 *513:A2 *80:47 0
9 *517:A2 *48:8 0
10 *46:7 *512:D 0
11 *46:7 *79:36 0
12 *46:11 *517:B1 0
13 *491:B1 *512:C 0
14 *491:B1 *46:11 0
15 *508:B *512:C 0
16 *517:B2 *46:11 0
17 *24:19 *46:11 0
18 *32:18 *513:A2 0
19 *42:6 *513:A2 0
20 *42:6 *517:A2 0
*RES
1 *510:X *46:7 24.5857 
2 *46:7 *46:11 13.75 
3 *46:11 *517:A2 29.2821 
4 *46:11 *513:A2 37.2643 
5 *46:7 *512:C 19.0321 
*END

*D_NET *47 0.00276797
*CONN
*I *513:A3 I *D sky130_fd_sc_hd__a31o_1
*I *512:D I *D sky130_fd_sc_hd__nand4_2
*I *517:B1 I *D sky130_fd_sc_hd__a22o_1
*I *511:X O *D sky130_fd_sc_hd__a21o_1
*CAP
1 *513:A3 2.56688e-05
2 *512:D 0.000227169
3 *517:B1 0.000295339
4 *511:X 0.000772727
5 *47:10 0.000585591
6 *47:8 0.000861479
7 *517:B1 *48:8 0
8 *47:8 *80:52 0
9 *47:8 *80:64 0
10 *47:8 *81:56 0
11 *502:A *47:8 0
12 *502:B *47:8 0
13 *509:A *512:D 0
14 *509:B *47:10 0
15 *511:B1 *47:8 0
16 *512:A *517:B1 0
17 *512:B *512:D 0
18 *513:A2 *517:B1 0
19 *517:A1 *517:B1 0
20 *517:B2 *517:B1 0
21 *24:20 *517:B1 0
22 *27:29 *47:8 0
23 *38:8 *47:8 0
24 *38:19 *47:10 0
25 *40:13 *47:8 0
26 *42:6 *47:8 0
27 *46:7 *512:D 0
28 *46:11 *517:B1 0
*RES
1 *511:X *47:8 37.3357 
2 *47:8 *47:10 1.64286 
3 *47:10 *517:B1 43.4786 
4 *47:10 *512:D 23.1036 
5 *47:8 *513:A3 18.8357 
*END

*D_NET *48 0.00145696
*CONN
*I *537:A1 I *D sky130_fd_sc_hd__a21oi_1
*I *518:B I *D sky130_fd_sc_hd__and3_1