*SPEF "ieee 1481-1999"
*DESIGN "tt2_tholin_namebadge"
*DATE "11:11:11 Fri 11 11, 1111"
*VENDOR "OpenRCX"
*PROGRAM "Parallel Extraction"
*VERSION "1.0"
*DESIGN_FLOW "NAME_SCOPE LOCAL" "PIN_CAP NONE"
*DIVIDER /
*DELIMITER :
*BUS_DELIMITER []
*T_UNIT 1 NS
*C_UNIT 1 PF
*R_UNIT 1 OHM
*L_UNIT 1 HENRY

*NAME_MAP
*1 clk
*2 io_in[0]
*3 io_in[1]
*4 io_in[2]
*5 net48
*6 net58
*7 net59
*8 net60
*9 net61
*10 net62
*11 net63
*12 net64
*13 net65
*14 net66
*15 net67
*16 net49
*17 net68
*18 net69
*19 net70
*20 net71
*21 net72
*22 net73
*23 net74
*24 net50
*25 net51
*26 net52
*27 net53
*28 net54
*29 net55
*30 net56
*31 net57
*32 io_out[0]
*33 io_out[1]
*34 io_out[2]
*35 io_out[3]
*36 io_out[4]
*37 io_out[5]
*38 io_out[6]
*39 io_out[7]
*40 rst
*43 _000_
*44 _001_
*45 _002_
*46 _003_
*47 _004_
*48 _005_
*49 _006_
*50 _007_
*51 _008_
*52 _009_
*53 _010_
*54 _011_
*55 _012_
*56 _013_
*57 _014_
*58 _015_
*59 _016_
*60 _017_
*61 _018_
*62 _019_
*63 _020_
*64 _021_
*65 _022_
*66 _023_
*67 _024_
*68 _025_
*69 _026_
*70 _027_
*71 _028_
*72 _029_
*73 _030_
*74 _031_
*75 _032_
*76 _033_
*77 _034_
*78 _035_
*79 _036_
*80 _037_
*81 _038_
*82 _039_
*83 _040_
*84 _041_
*85 _042_
*86 _043_
*87 _044_
*88 _045_
*89 _046_
*90 _047_
*91 _048_
*92 _049_
*93 _050_
*94 _051_
*95 _052_
*96 _053_
*97 _054_
*98 _055_
*99 _056_
*100 _057_
*101 _058_
*102 _059_
*103 _060_
*104 _061_
*105 _062_
*106 _063_
*107 _064_
*108 _065_
*109 _066_
*110 _067_
*111 _068_
*112 _069_
*113 _070_
*114 _071_
*115 _072_
*116 _073_
*117 _074_
*118 _075_
*119 _076_
*120 _077_
*121 _078_
*122 _079_
*123 _080_
*124 _081_
*125 _082_
*126 _083_
*127 _084_
*128 _085_
*129 _086_
*130 _087_
*131 _088_
*132 _089_
*133 _090_
*134 _091_
*135 _092_
*136 _093_
*137 _094_
*138 _095_
*139 _096_
*140 _097_
*141 _098_
*142 _099_
*143 _100_
*144 _101_
*145 _102_
*146 _103_
*147 _104_
*148 _105_
*149 _106_
*150 _107_
*151 _108_
*152 _109_
*153 _110_
*154 _111_
*155 _112_
*156 _113_
*157 _114_
*158 _115_
*159 _116_
*160 _117_
*161 _118_
*162 _119_
*163 _120_
*164 _121_
*165 _122_
*166 _123_
*167 _124_
*168 _125_
*169 _126_
*170 _127_
*171 _128_
*172 _129_
*173 _130_
*174 _131_
*175 _132_
*176 _133_
*177 _134_
*178 _135_
*179 _136_
*180 _137_
*181 _138_
*182 _139_
*183 _140_
*184 _141_
*185 _142_
*186 _143_
*187 _144_
*188 _145_
*189 _146_
*190 _147_
*191 _148_
*192 _149_
*193 _150_
*194 _151_
*195 _152_
*196 _153_
*197 _154_
*198 _155_
*199 _156_
*200 _157_
*201 _158_
*202 _159_
*203 _160_
*204 _161_
*205 _162_
*206 _163_
*207 _164_
*208 _165_
*209 _166_
*210 _167_
*211 _168_
*212 _169_
*213 _170_
*214 _171_
*215 _172_
*216 _173_
*217 _174_
*218 _175_
*219 _176_
*220 _177_
*221 _178_
*222 _179_
*223 _180_
*224 _181_
*225 _182_
*226 _183_
*227 _184_
*228 _185_
*229 _186_
*230 _187_
*231 _188_
*232 _189_
*233 _190_
*234 _191_
*235 _192_
*236 _193_
*237 _194_
*238 _195_
*239 _196_
*240 _197_
*241 _198_
*242 _199_
*243 _200_
*244 _201_
*245 _202_
*246 _203_
*247 _204_
*248 _205_
*249 _206_
*250 _207_
*251 _208_
*252 _209_
*253 _210_
*254 _211_
*255 _212_
*256 _213_
*257 _214_
*258 _215_
*259 _216_
*260 _217_
*261 _218_
*262 _219_
*263 _220_
*264 _221_
*265 _222_
*266 _223_
*267 _224_
*268 _225_
*269 _226_
*270 _227_
*271 _228_
*272 _229_
*273 _230_
*274 _231_
*275 _232_
*276 _233_
*277 _234_
*278 _235_
*279 _236_
*280 _237_
*281 _238_
*282 _239_
*283 _240_
*284 _241_
*285 _242_
*286 _243_
*287 _244_
*288 _245_
*289 _246_
*290 _247_
*291 _248_
*292 _249_
*293 _250_
*294 _251_
*295 _252_
*296 _253_
*297 _254_
*298 _255_
*299 _256_
*300 _257_
*301 _258_
*302 _259_
*303 _260_
*304 _261_
*305 _262_
*306 _263_
*307 _264_
*308 _265_
*309 _266_
*310 _267_
*311 _268_
*312 _269_
*313 _270_
*314 _271_
*315 _272_
*316 _273_
*317 _274_
*318 _275_
*319 _276_
*320 _277_
*321 _278_
*322 _279_
*323 _280_
*324 _281_
*325 _282_
*326 _283_
*327 _284_
*328 _285_
*329 _286_
*330 _287_
*331 _288_
*332 _289_
*333 _290_
*334 _291_
*335 _292_
*336 _293_
*337 _294_
*338 _295_
*339 _296_
*340 _297_
*341 _298_
*342 _299_
*343 _300_
*344 _301_
*345 _302_
*346 _303_
*347 _304_
*348 _305_
*349 _306_
*350 _307_
*351 _308_
*352 _309_
*353 _310_
*354 _311_
*355 _312_
*356 _313_
*357 _314_
*358 _315_
*359 _316_
*360 _317_
*361 _318_
*362 _319_
*363 _320_
*364 _321_
*365 _322_
*366 _323_
*367 _324_
*368 _325_
*369 _326_
*370 _327_
*371 _328_
*372 _329_
*373 _330_
*374 _331_
*375 _332_
*376 _333_
*377 _334_
*378 _335_
*379 _336_
*380 _337_
*381 _338_
*382 _339_
*383 _340_
*384 _341_
*385 _342_
*386 _343_
*387 _344_
*388 _345_
*389 _346_
*390 _347_
*391 _348_
*392 _349_
*393 _350_
*394 _351_
*395 _352_
*396 _353_
*397 _354_
*398 _355_
*399 _356_
*400 _357_
*401 _358_
*402 _359_
*403 _360_
*404 _361_
*405 _362_
*406 _363_
*407 _364_
*408 _365_
*409 _366_
*410 _367_
*411 _368_
*412 clknet_0_clk
*413 clknet_2_0__leaf_clk
*414 clknet_2_1__leaf_clk
*415 clknet_2_2__leaf_clk
*416 clknet_2_3__leaf_clk
*417 lcd\.num_state\[0\]
*418 lcd\.num_state\[1\]
*419 lcd\.rom_addr\[0\]
*420 lcd\.rom_addr\[1\]
*421 lcd\.rom_addr\[3\]
*422 lcd\.rom_addr\[4\]
*423 lcd\.rom_addr\[5\]
*424 lcd\.rom_addr\[6\]
*425 lcd\.round\[0\]
*426 lcd\.round\[1\]
*427 lcd\.s_ROM\[0\]
*428 lcd\.s_ROM\[1\]
*429 lcd\.s_ROM\[2\]
*430 lcd\.s_ROM\[3\]
*431 lcd\.s_ROM\[4\]
*432 lcd\.s_ROM\[5\]
*433 lcd\.s_ROM\[6\]
*434 lcd\.seq\[0\]
*435 lcd\.seq\[1\]
*436 lcd\.seq\[2\]
*437 lcd\.seq\[3\]
*438 lcd\.seq\[4\]
*439 lcd\.seq\[5\]
*440 lcd\.seq\[6\]
*441 lcd\.seq\[7\]
*442 lcd\.toggle
*443 net1
*444 net10
*445 net11
*446 net12
*447 net13
*448 net14
*449 net15
*450 net16
*451 net17
*452 net18
*453 net19
*454 net2
*455 net20
*456 net21
*457 net22
*458 net23
*459 net24
*460 net25
*461 net26
*462 net27
*463 net28
*464 net29
*465 net3
*466 net30
*467 net31
*468 net32
*469 net33
*470 net34
*471 net35
*472 net36
*473 net37
*474 net38
*475 net39
*476 net4
*477 net40
*478 net41
*479 net42
*480 net43
*481 net44
*482 net45
*483 net46
*484 net47
*485 net5
*486 net6
*487 net7
*488 net8
*489 net9
*490 ANTENNA__372__A
*491 ANTENNA__374__A
*492 ANTENNA__375__A
*493 ANTENNA__389__B
*494 ANTENNA__390__C
*495 ANTENNA__391__A
*496 ANTENNA__399__A
*497 ANTENNA__399__B
*498 ANTENNA__404__D
*499 ANTENNA__405__A
*500 ANTENNA__406__A0
*501 ANTENNA__408__A2
*502 ANTENNA__409__A2
*503 ANTENNA__422__A2
*504 ANTENNA__435__A
*505 ANTENNA__437__A2
*506 ANTENNA__437__B1
*507 ANTENNA__438__A2
*508 ANTENNA__438__B1
*509 ANTENNA__441__A
*510 ANTENNA__444__A
*511 ANTENNA__446__A
*512 ANTENNA__450__A1
*513 ANTENNA__450__B1
*514 ANTENNA__451__A1
*515 ANTENNA__451__B1
*516 ANTENNA__455__B
*517 ANTENNA__458__A1
*518 ANTENNA__463__B1
*519 ANTENNA__466__A
*520 ANTENNA__467__B
*521 ANTENNA__471__A
*522 ANTENNA__476__B1
*523 ANTENNA__477__A
*524 ANTENNA__480__A
*525 ANTENNA__480__B
*526 ANTENNA__482__B1
*527 ANTENNA__484__A
*528 ANTENNA__484__B
*529 ANTENNA__486__A
*530 ANTENNA__487__B
*531 ANTENNA__493__A
*532 ANTENNA__494__A
*533 ANTENNA__494__B
*534 ANTENNA__496__A2
*535 ANTENNA__497__A1
*536 ANTENNA__497__A2
*537 ANTENNA__497__B1
*538 ANTENNA__497__B2
*539 ANTENNA__498__A
*540 ANTENNA__498__B
*541 ANTENNA__499__A2
*542 ANTENNA__499__B1
*543 ANTENNA__502__C1
*544 ANTENNA__503__A
*545 ANTENNA__506__A1
*546 ANTENNA__506__A2
*547 ANTENNA__508__B
*548 ANTENNA__510__A
*549 ANTENNA__510__C
*550 ANTENNA__513__A1
*551 ANTENNA__514__B
*552 ANTENNA__515__A1
*553 ANTENNA__515__A2
*554 ANTENNA__516__A1
*555 ANTENNA__517__A
*556 ANTENNA__521__B1
*557 ANTENNA__521__C1
*558 ANTENNA__523__A
*559 ANTENNA__523__B
*560 ANTENNA__524__A
*561 ANTENNA__524__B
*562 ANTENNA__525__A1
*563 ANTENNA__526__A2
*564 ANTENNA__529__S
*565 ANTENNA__533__C
*566 ANTENNA__534__A2
*567 ANTENNA__535__B2
*568 ANTENNA__537__C1
*569 ANTENNA__539__A1
*570 ANTENNA__540__A3
*571 ANTENNA__541__B
*572 ANTENNA__544__A
*573 ANTENNA__546__C1
*574 ANTENNA__553__A2
*575 ANTENNA__555__B1
*576 ANTENNA__557__A1
*577 ANTENNA__557__B1
*578 ANTENNA__557__C1
*579 ANTENNA__560__A1
*580 ANTENNA__560__C1
*581 ANTENNA__564__B
*582 ANTENNA__565__A
*583 ANTENNA__566__A
*584 ANTENNA__567__A2
*585 ANTENNA__567__B1
*586 ANTENNA__567__B2
*587 ANTENNA__568__A1
*588 ANTENNA__568__A2
*589 ANTENNA__573__A
*590 ANTENNA__573__B
*591 ANTENNA__574__A1
*592 ANTENNA__576__A1
*593 ANTENNA__579__A1
*594 ANTENNA__580__A1
*595 ANTENNA__583__A
*596 ANTENNA__584__A
*597 ANTENNA__587__B1
*598 ANTENNA__589__A
*599 ANTENNA__589__B
*600 ANTENNA__590__A2
*601 ANTENNA__590__C1
*602 ANTENNA__591__A1
*603 ANTENNA__591__A2
*604 ANTENNA__592__A1
*605 ANTENNA__593__A
*606 ANTENNA__599__A1
*607 ANTENNA__601__C1
*608 ANTENNA__603__B1
*609 ANTENNA__605__B1
*610 ANTENNA__610__A
*611 ANTENNA__611__A1
*612 ANTENNA__612__B2
*613 ANTENNA__617__A1
*614 ANTENNA__622__A2
*615 ANTENNA__622__B1
*616 ANTENNA__624__A1
*617 ANTENNA__624__B1
*618 ANTENNA__629__A1
*619 ANTENNA__630__S
*620 ANTENNA__636__S
*621 ANTENNA__640__A1
*622 ANTENNA__641__A1_N
*623 ANTENNA__642__A2
*624 ANTENNA__645__A2
*625 ANTENNA__649__A1
*626 ANTENNA__650__A2
*627 ANTENNA__653__A
*628 ANTENNA__654__B1
*629 ANTENNA__660__A
*630 ANTENNA__661__B2
*631 ANTENNA__662__S
*632 ANTENNA__665__A2
*633 ANTENNA__666__A2
*634 ANTENNA__667__A1
*635 ANTENNA__667__A2
*636 ANTENNA__668__B1
*637 ANTENNA__669__A2
*638 ANTENNA__670__A2
*639 ANTENNA__673__A1
*640 ANTENNA__674__A1
*641 ANTENNA__675__S
*642 ANTENNA__678__A
*643 ANTENNA__678__B
*644 ANTENNA__679__A1
*645 ANTENNA__680__A
*646 ANTENNA__684__B
*647 ANTENNA__693__A1
*648 ANTENNA__699__A1
*649 ANTENNA__700__A1
*650 ANTENNA__703__B2
*651 ANTENNA__707__B1
*652 ANTENNA__712__A
*653 ANTENNA__712__B
*654 ANTENNA__713__A1
*655 ANTENNA__716__A3
*656 ANTENNA__718__A3
*657 ANTENNA__722__A2
*658 ANTENNA__722__A3
*659 ANTENNA__729__A1
*660 ANTENNA__736__B2
*661 ANTENNA__746__D
*662 ANTENNA__748__D
*663 ANTENNA__749__D
*664 ANTENNA__751__D
*665 ANTENNA__752__D
*666 ANTENNA__798__A
*667 ANTENNA_clkbuf_0_clk_A
*668 ANTENNA_fanout16_A
*669 ANTENNA_fanout17_A
*670 ANTENNA_fanout24_A
*671 ANTENNA_fanout45_A
*672 ANTENNA_input1_A
*673 ANTENNA_input2_A
*674 ANTENNA_input3_A
*675 ANTENNA_input4_A
*676 ANTENNA_output10_A
*677 ANTENNA_output11_A
*678 ANTENNA_output12_A
*679 ANTENNA_output5_A
*680 ANTENNA_output8_A
*681 FILLER_0_103
*682 FILLER_0_110
*683 FILLER_0_113
*684 FILLER_0_120
*685 FILLER_0_127
*686 FILLER_0_134
*687 FILLER_0_141
*688 FILLER_0_146
*689 FILLER_0_153
*690 FILLER_0_16
*691 FILLER_0_160
*692 FILLER_0_166
*693 FILLER_0_169
*694 FILLER_0_174
*695 FILLER_0_181
*696 FILLER_0_188
*697 FILLER_0_194
*698 FILLER_0_197
*699 FILLER_0_202
*700 FILLER_0_209
*701 FILLER_0_216
*702 FILLER_0_222
*703 FILLER_0_225
*704 FILLER_0_230
*705 FILLER_0_237
*706 FILLER_0_243
*707 FILLER_0_26
*708 FILLER_0_29
*709 FILLER_0_3
*710 FILLER_0_36
*711 FILLER_0_48
*712 FILLER_0_54
*713 FILLER_0_57
*714 FILLER_0_65
*715 FILLER_0_75
*716 FILLER_0_82
*717 FILLER_0_85
*718 FILLER_0_89
*719 FILLER_0_9
*720 FILLER_0_96
*721 FILLER_10_110
*722 FILLER_10_114
*723 FILLER_10_118
*724 FILLER_10_124
*725 FILLER_10_132
*726 FILLER_10_138
*727 FILLER_10_141
*728 FILLER_10_15
*729 FILLER_10_157
*730 FILLER_10_164
*731 FILLER_10_185
*732 FILLER_10_191
*733 FILLER_10_195
*734 FILLER_10_197
*735 FILLER_10_202
*736 FILLER_10_210
*737 FILLER_10_217
*738 FILLER_10_223
*739 FILLER_10_239
*740 FILLER_10_243
*741 FILLER_10_25
*742 FILLER_10_29
*743 FILLER_10_3
*744 FILLER_10_41
*745 FILLER_10_53
*746 FILLER_10_68
*747 FILLER_10_77
*748 FILLER_10_83
*749 FILLER_10_85
*750 FILLER_10_89
*751 FILLER_10_97
*752 FILLER_11_101
*753 FILLER_11_107
*754 FILLER_11_110
*755 FILLER_11_113
*756 FILLER_11_122
*757 FILLER_11_132
*758 FILLER_11_154
*759 FILLER_11_160
*760 FILLER_11_166
*761 FILLER_11_169
*762 FILLER_11_175
*763 FILLER_11_188
*764 FILLER_11_20
*765 FILLER_11_204
*766 FILLER_11_210
*767 FILLER_11_216
*768 FILLER_11_221
*769 FILLER_11_225
*770 FILLER_11_229
*771 FILLER_11_237
*772 FILLER_11_243
*773 FILLER_11_3
*774 FILLER_11_31
*775 FILLER_11_39
*776 FILLER_11_49
*777 FILLER_11_55
*778 FILLER_11_57
*779 FILLER_11_70
*780 FILLER_11_82
*781 FILLER_11_88
*782 FILLER_11_9
*783 FILLER_11_94
*784 FILLER_12_109
*785 FILLER_12_117
*786 FILLER_12_125
*787 FILLER_12_133
*788 FILLER_12_139
*789 FILLER_12_141
*790 FILLER_12_148
*791 FILLER_12_159
*792 FILLER_12_167
*793 FILLER_12_17
*794 FILLER_12_177
*795 FILLER_12_188
*796 FILLER_12_194
*797 FILLER_12_197
*798 FILLER_12_212
*799 FILLER_12_224
*800 FILLER_12_230
*801 FILLER_12_236
*802 FILLER_12_242
*803 FILLER_12_26
*804 FILLER_12_29
*805 FILLER_12_3
*806 FILLER_12_37
*807 FILLER_12_47
*808 FILLER_12_55
*809 FILLER_12_63
*810 FILLER_12_7
*811 FILLER_12_75
*812 FILLER_12_83
*813 FILLER_12_85
*814 FILLER_12_89
*815 FILLER_12_98
*816 FILLER_13_100
*817 FILLER_13_106
*818 FILLER_13_11
*819 FILLER_13_110
*820 FILLER_13_113
*821 FILLER_13_119
*822 FILLER_13_131
*823 FILLER_13_140
*824 FILLER_13_146
*825 FILLER_13_152
*826 FILLER_13_158
*827 FILLER_13_164
*828 FILLER_13_169
*829 FILLER_13_180
*830 FILLER_13_192
*831 FILLER_13_196
*832 FILLER_13_203
*833 FILLER_13_21
*834 FILLER_13_214
*835 FILLER_13_220
*836 FILLER_13_225
*837 FILLER_13_234
*838 FILLER_13_240
*839 FILLER_13_3
*840 FILLER_13_32
*841 FILLER_13_42
*842 FILLER_13_54
*843 FILLER_13_57
*844 FILLER_13_61
*845 FILLER_13_67
*846 FILLER_13_79
*847 FILLER_13_91
*848 FILLER_14_109
*849 FILLER_14_117
*850 FILLER_14_130
*851 FILLER_14_136
*852 FILLER_14_141
*853 FILLER_14_145
*854 FILLER_14_149
*855 FILLER_14_157
*856 FILLER_14_16
*857 FILLER_14_170
*858 FILLER_14_181
*859 FILLER_14_190
*860 FILLER_14_197
*861 FILLER_14_201
*862 FILLER_14_213
*863 FILLER_14_221
*864 FILLER_14_225
*865 FILLER_14_236
*866 FILLER_14_242
*867 FILLER_14_26
*868 FILLER_14_29
*869 FILLER_14_3
*870 FILLER_14_33
*871 FILLER_14_36
*872 FILLER_14_48
*873 FILLER_14_54
*874 FILLER_14_62
*875 FILLER_14_66
*876 FILLER_14_69
*877 FILLER_14_7
*878 FILLER_14_82
*879 FILLER_14_85
*880 FILLER_14_98
*881 FILLER_15_102
*882 FILLER_15_110
*883 FILLER_15_113
*884 FILLER_15_117
*885 FILLER_15_127
*886 FILLER_15_13
*887 FILLER_15_135
*888 FILLER_15_141
*889 FILLER_15_153
*890 FILLER_15_165
*891 FILLER_15_169
*892 FILLER_15_187
*893 FILLER_15_20
*894 FILLER_15_200
*895 FILLER_15_209
*896 FILLER_15_215
*897 FILLER_15_221
*898 FILLER_15_225
*899 FILLER_15_234
*900 FILLER_15_24
*901 FILLER_15_240
*902 FILLER_15_3
*903 FILLER_15_32
*904 FILLER_15_36
*905 FILLER_15_39
*906 FILLER_15_48
*907 FILLER_15_54
*908 FILLER_15_57
*909 FILLER_15_68
*910 FILLER_15_78
*911 FILLER_15_91
*912 FILLER_15_99
*913 FILLER_16_106
*914 FILLER_16_110
*915 FILLER_16_113
*916 FILLER_16_126
*917 FILLER_16_137
*918 FILLER_16_141
*919 FILLER_16_151
*920 FILLER_16_160
*921 FILLER_16_166
*922 FILLER_16_172
*923 FILLER_16_178
*924 FILLER_16_186
*925 FILLER_16_194
*926 FILLER_16_197
*927 FILLER_16_203
*928 FILLER_16_209
*929 FILLER_16_215
*930 FILLER_16_221
*931 FILLER_16_232
*932 FILLER_16_238
*933 FILLER_16_24
*934 FILLER_16_29
*935 FILLER_16_3
*936 FILLER_16_39
*937 FILLER_16_47
*938 FILLER_16_50
*939 FILLER_16_76
*940 FILLER_16_82
*941 FILLER_16_85
*942 FILLER_16_95
*943 FILLER_17_101
*944 FILLER_17_110
*945 FILLER_17_113
*946 FILLER_17_121
*947 FILLER_17_129
*948 FILLER_17_13
*949 FILLER_17_144
*950 FILLER_17_150
*951 FILLER_17_156
*952 FILLER_17_162
*953 FILLER_17_169
*954 FILLER_17_175
*955 FILLER_17_183
*956 FILLER_17_189
*957 FILLER_17_195
*958 FILLER_17_20
*959 FILLER_17_206
*960 FILLER_17_212
*961 FILLER_17_218
*962 FILLER_17_222
*963 FILLER_17_225
*964 FILLER_17_234
*965 FILLER_17_241
*966 FILLER_17_26
*967 FILLER_17_3
*968 FILLER_17_30
*969 FILLER_17_36
*970 FILLER_17_48
*971 FILLER_17_54
*972 FILLER_17_57
*973 FILLER_17_61
*974 FILLER_17_69
*975 FILLER_17_78
*976 FILLER_17_9
*977 FILLER_17_91
*978 FILLER_18_107
*979 FILLER_18_111
*980 FILLER_18_119
*981 FILLER_18_125
*982 FILLER_18_131
*983 FILLER_18_138
*984 FILLER_18_141
*985 FILLER_18_15
*986 FILLER_18_150
*987 FILLER_18_156
*988 FILLER_18_162
*989 FILLER_18_168
*990 FILLER_18_174
*991 FILLER_18_183
*992 FILLER_18_189
*993 FILLER_18_195
*994 FILLER_18_197
*995 FILLER_18_201
*996 FILLER_18_205
*997 FILLER_18_208
*998 FILLER_18_212
*999 FILLER_18_218
*1000 FILLER_18_229
*1001 FILLER_18_233
*1002 FILLER_18_24
*1003 FILLER_18_240
*1004 FILLER_18_29
*1005 FILLER_18_3
*1006 FILLER_18_34
*1007 FILLER_18_40
*1008 FILLER_18_52
*1009 FILLER_18_55
*1010 FILLER_18_62
*1011 FILLER_18_69
*1012 FILLER_18_75
*1013 FILLER_18_80
*1014 FILLER_18_85
*1015 FILLER_18_9
*1016 FILLER_18_90
*1017 FILLER_19_110
*1018 FILLER_19_113
*1019 FILLER_19_125
*1020 FILLER_19_133
*1021 FILLER_19_148
*1022 FILLER_19_152
*1023 FILLER_19_155
*1024 FILLER_19_166
*1025 FILLER_19_169
*1026 FILLER_19_179
*1027 FILLER_19_18
*1028 FILLER_19_185
*1029 FILLER_19_191
*1030 FILLER_19_207
*1031 FILLER_19_215
*1032 FILLER_19_222
*1033 FILLER_19_225
*1034 FILLER_19_229
*1035 FILLER_19_238
*1036 FILLER_19_26
*1037 FILLER_19_3
*1038 FILLER_19_30
*1039 FILLER_19_36
*1040 FILLER_19_47
*1041 FILLER_19_55
*1042 FILLER_19_57
*1043 FILLER_19_61
*1044 FILLER_19_72
*1045 FILLER_19_79
*1046 FILLER_19_8
*1047 FILLER_19_90
*1048 FILLER_1_104
*1049 FILLER_1_110
*1050 FILLER_1_113
*1051 FILLER_1_117
*1052 FILLER_1_128
*1053 FILLER_1_134
*1054 FILLER_1_137
*1055 FILLER_1_143
*1056 FILLER_1_150
*1057 FILLER_1_158
*1058 FILLER_1_162
*1059 FILLER_1_169
*1060 FILLER_1_17
*1061 FILLER_1_177
*1062 FILLER_1_185
*1063 FILLER_1_192
*1064 FILLER_1_199
*1065 FILLER_1_210
*1066 FILLER_1_217
*1067 FILLER_1_223
*1068 FILLER_1_225
*1069 FILLER_1_230
*1070 FILLER_1_239
*1071 FILLER_1_243
*1072 FILLER_1_27
*1073 FILLER_1_3
*1074 FILLER_1_39
*1075 FILLER_1_52
*1076 FILLER_1_57
*1077 FILLER_1_65
*1078 FILLER_1_7
*1079 FILLER_1_74
*1080 FILLER_1_81
*1081 FILLER_1_87
*1082 FILLER_1_96
*1083 FILLER_20_106
*1084 FILLER_20_112
*1085 FILLER_20_138
*1086 FILLER_20_141
*1087 FILLER_20_150
*1088 FILLER_20_159
*1089 FILLER_20_169
*1090 FILLER_20_18
*1091 FILLER_20_180
*1092 FILLER_20_194
*1093 FILLER_20_197
*1094 FILLER_20_206
*1095 FILLER_20_217
*1096 FILLER_20_227
*1097 FILLER_20_241
*1098 FILLER_20_26
*1099 FILLER_20_29
*1100 FILLER_20_3
*1101 FILLER_20_33
*1102 FILLER_20_39
*1103 FILLER_20_49
*1104 FILLER_20_61
*1105 FILLER_20_81
*1106 FILLER_20_85
*1107 FILLER_20_91
*1108 FILLER_21_100
*1109 FILLER_21_109
*1110 FILLER_21_113
*1111 FILLER_21_117
*1112 FILLER_21_12
*1113 FILLER_21_125
*1114 FILLER_21_128
*1115 FILLER_21_142
*1116 FILLER_21_153
*1117 FILLER_21_164
*1118 FILLER_21_169
*1119 FILLER_21_173
*1120 FILLER_21_179
*1121 FILLER_21_187
*1122 FILLER_21_202
*1123 FILLER_21_208
*1124 FILLER_21_217
*1125 FILLER_21_223
*1126 FILLER_21_225
*1127 FILLER_21_239
*1128 FILLER_21_243
*1129 FILLER_21_3
*1130 FILLER_21_32
*1131 FILLER_21_40
*1132 FILLER_21_52
*1133 FILLER_21_57
*1134 FILLER_21_7
*1135 FILLER_21_71
*1136 FILLER_21_93
*1137 FILLER_22_102
*1138 FILLER_22_112
*1139 FILLER_22_118
*1140 FILLER_22_126
*1141 FILLER_22_136
*1142 FILLER_22_141
*1143 FILLER_22_15
*1144 FILLER_22_152
*1145 FILLER_22_167
*1146 FILLER_22_173
*1147 FILLER_22_181
*1148 FILLER_22_193
*1149 FILLER_22_197
*1150 FILLER_22_206
*1151 FILLER_22_212
*1152 FILLER_22_218
*1153 FILLER_22_227
*1154 FILLER_22_237
*1155 FILLER_22_243
*1156 FILLER_22_26
*1157 FILLER_22_29
*1158 FILLER_22_3
*1159 FILLER_22_40
*1160 FILLER_22_48
*1161 FILLER_22_58
*1162 FILLER_22_69
*1163 FILLER_22_82
*1164 FILLER_22_85
*1165 FILLER_22_9
*1166 FILLER_22_94
*1167 FILLER_23_100
*1168 FILLER_23_110
*1169 FILLER_23_113
*1170 FILLER_23_117
*1171 FILLER_23_12
*1172 FILLER_23_134
*1173 FILLER_23_144
*1174 FILLER_23_152
*1175 FILLER_23_156
*1176 FILLER_23_16
*1177 FILLER_23_163
*1178 FILLER_23_167
*1179 FILLER_23_169
*1180 FILLER_23_173
*1181 FILLER_23_185
*1182 FILLER_23_191
*1183 FILLER_23_194
*1184 FILLER_23_205
*1185 FILLER_23_218
*1186 FILLER_23_225
*1187 FILLER_23_235
*1188 FILLER_23_241
*1189 FILLER_23_3
*1190 FILLER_23_36
*1191 FILLER_23_47
*1192 FILLER_23_51
*1193 FILLER_23_54
*1194 FILLER_23_57
*1195 FILLER_23_63
*1196 FILLER_23_94
*1197 FILLER_24_103
*1198 FILLER_24_119
*1199 FILLER_24_132
*1200 FILLER_24_138
*1201 FILLER_24_141
*1202 FILLER_24_146
*1203 FILLER_24_159
*1204 FILLER_24_16
*1205 FILLER_24_165
*1206 FILLER_24_173
*1207 FILLER_24_187
*1208 FILLER_24_194
*1209 FILLER_24_197
*1210 FILLER_24_201
*1211 FILLER_24_207
*1212 FILLER_24_211
*1213 FILLER_24_218
*1214 FILLER_24_226
*1215 FILLER_24_231
*1216 FILLER_24_237
*1217 FILLER_24_243
*1218 FILLER_24_26
*1219 FILLER_24_29
*1220 FILLER_24_3
*1221 FILLER_24_37
*1222 FILLER_24_41
*1223 FILLER_24_58
*1224 FILLER_24_70
*1225 FILLER_24_82
*1226 FILLER_24_85
*1227 FILLER_24_9
*1228 FILLER_25_105
*1229 FILLER_25_111
*1230 FILLER_25_113
*1231 FILLER_25_121
*1232 FILLER_25_147
*1233 FILLER_25_15
*1234 FILLER_25_153
*1235 FILLER_25_159
*1236 FILLER_25_165
*1237 FILLER_25_169
*1238 FILLER_25_177
*1239 FILLER_25_185
*1240 FILLER_25_192
*1241 FILLER_25_200
*1242 FILLER_25_206
*1243 FILLER_25_218
*1244 FILLER_25_225
*1245 FILLER_25_229
*1246 FILLER_25_235
*1247 FILLER_25_243
*1248 FILLER_25_3
*1249 FILLER_25_36
*1250 FILLER_25_48
*1251 FILLER_25_57
*1252 FILLER_25_69
*1253 FILLER_25_93
*1254 FILLER_26_106
*1255 FILLER_26_114
*1256 FILLER_26_121
*1257 FILLER_26_132
*1258 FILLER_26_138
*1259 FILLER_26_141
*1260 FILLER_26_152
*1261 FILLER_26_163
*1262 FILLER_26_169
*1263 FILLER_26_173
*1264 FILLER_26_182
*1265 FILLER_26_190
*1266 FILLER_26_194
*1267 FILLER_26_197
*1268 FILLER_26_203
*1269 FILLER_26_212
*1270 FILLER_26_218
*1271 FILLER_26_226
*1272 FILLER_26_232
*1273 FILLER_26_26
*1274 FILLER_26_29
*1275 FILLER_26_3
*1276 FILLER_26_41
*1277 FILLER_26_61
*1278 FILLER_26_82
*1279 FILLER_26_85
*1280 FILLER_26_9
*1281 FILLER_27_103
*1282 FILLER_27_109
*1283 FILLER_27_113
*1284 FILLER_27_121
*1285 FILLER_27_132
*1286 FILLER_27_147
*1287 FILLER_27_15
*1288 FILLER_27_157
*1289 FILLER_27_163
*1290 FILLER_27_167
*1291 FILLER_27_169
*1292 FILLER_27_175
*1293 FILLER_27_179
*1294 FILLER_27_186
*1295 FILLER_27_203
*1296 FILLER_27_209
*1297 FILLER_27_217
*1298 FILLER_27_223
*1299 FILLER_27_225
*1300 FILLER_27_237
*1301 FILLER_27_243
*1302 FILLER_27_3
*1303 FILLER_27_36
*1304 FILLER_27_48
*1305 FILLER_27_57
*1306 FILLER_27_69
*1307 FILLER_27_77
*1308 FILLER_27_80
*1309 FILLER_28_103
*1310 FILLER_28_115
*1311 FILLER_28_133
*1312 FILLER_28_139
*1313 FILLER_28_141
*1314 FILLER_28_146
*1315 FILLER_28_152
*1316 FILLER_28_158
*1317 FILLER_28_168
*1318 FILLER_28_174
*1319 FILLER_28_181
*1320 FILLER_28_188
*1321 FILLER_28_194
*1322 FILLER_28_197
*1323 FILLER_28_204
*1324 FILLER_28_216
*1325 FILLER_28_222
*1326 FILLER_28_229
*1327 FILLER_28_235
*1328 FILLER_28_243
*1329 FILLER_28_26
*1330 FILLER_28_29
*1331 FILLER_28_3
*1332 FILLER_28_41
*1333 FILLER_28_49
*1334 FILLER_28_66
*1335 FILLER_28_78
*1336 FILLER_28_85
*1337 FILLER_28_9
*1338 FILLER_29_105
*1339 FILLER_29_111
*1340 FILLER_29_113
*1341 FILLER_29_125
*1342 FILLER_29_136
*1343 FILLER_29_148
*1344 FILLER_29_15
*1345 FILLER_29_154
*1346 FILLER_29_160
*1347 FILLER_29_166
*1348 FILLER_29_169
*1349 FILLER_29_175
*1350 FILLER_29_181
*1351 FILLER_29_193
*1352 FILLER_29_199
*1353 FILLER_29_211
*1354 FILLER_29_217
*1355 FILLER_29_223
*1356 FILLER_29_225
*1357 FILLER_29_235
*1358 FILLER_29_243
*1359 FILLER_29_3
*1360 FILLER_29_35
*1361 FILLER_29_47
*1362 FILLER_29_55
*1363 FILLER_29_57
*1364 FILLER_29_69
*1365 FILLER_29_93
*1366 FILLER_2_103
*1367 FILLER_2_111
*1368 FILLER_2_124
*1369 FILLER_2_138
*1370 FILLER_2_141
*1371 FILLER_2_149
*1372 FILLER_2_155
*1373 FILLER_2_180
*1374 FILLER_2_192
*1375 FILLER_2_197
*1376 FILLER_2_221
*1377 FILLER_2_227
*1378 FILLER_2_233
*1379 FILLER_2_242
*1380 FILLER_2_26
*1381 FILLER_2_29
*1382 FILLER_2_3
*1383 FILLER_2_33
*1384 FILLER_2_51
*1385 FILLER_2_55
*1386 FILLER_2_69
*1387 FILLER_2_82
*1388 FILLER_2_85
*1389 FILLER_2_9
*1390 FILLER_2_96
*1391 FILLER_30_103
*1392 FILLER_30_115
*1393 FILLER_30_127
*1394 FILLER_30_136
*1395 FILLER_30_141
*1396 FILLER_30_151
*1397 FILLER_30_163
*1398 FILLER_30_173
*1399 FILLER_30_185
*1400 FILLER_30_194
*1401 FILLER_30_197
*1402 FILLER_30_207
*1403 FILLER_30_217
*1404 FILLER_30_225
*1405 FILLER_30_233
*1406 FILLER_30_241
*1407 FILLER_30_26
*1408 FILLER_30_29
*1409 FILLER_30_3
*1410 FILLER_30_41
*1411 FILLER_30_49
*1412 FILLER_30_53
*1413 FILLER_30_77
*1414 FILLER_30_83
*1415 FILLER_30_85
*1416 FILLER_30_9
*1417 FILLER_31_101
*1418 FILLER_31_109
*1419 FILLER_31_113
*1420 FILLER_31_125
*1421 FILLER_31_137
*1422 FILLER_31_145
*1423 FILLER_31_15
*1424 FILLER_31_150
*1425 FILLER_31_160
*1426 FILLER_31_169
*1427 FILLER_31_175
*1428 FILLER_31_182
*1429 FILLER_31_194
*1430 FILLER_31_202
*1431 FILLER_31_212
*1432 FILLER_31_220
*1433 FILLER_31_225
*1434 FILLER_31_237
*1435 FILLER_31_243
*1436 FILLER_31_3
*1437 FILLER_31_35
*1438 FILLER_31_47
*1439 FILLER_31_55
*1440 FILLER_31_57
*1441 FILLER_31_76
*1442 FILLER_31_84
*1443 FILLER_32_103
*1444 FILLER_32_109
*1445 FILLER_32_113
*1446 FILLER_32_116
*1447 FILLER_32_129
*1448 FILLER_32_137
*1449 FILLER_32_141
*1450 FILLER_32_150
*1451 FILLER_32_156
*1452 FILLER_32_162
*1453 FILLER_32_170
*1454 FILLER_32_180
*1455 FILLER_32_188
*1456 FILLER_32_197
*1457 FILLER_32_205
*1458 FILLER_32_212
*1459 FILLER_32_224
*1460 FILLER_32_236
*1461 FILLER_32_26
*1462 FILLER_32_29
*1463 FILLER_32_3
*1464 FILLER_32_41
*1465 FILLER_32_61
*1466 FILLER_32_73
*1467 FILLER_32_81
*1468 FILLER_32_85
*1469 FILLER_32_9
*1470 FILLER_33_101
*1471 FILLER_33_107
*1472 FILLER_33_110
*1473 FILLER_33_113
*1474 FILLER_33_119
*1475 FILLER_33_123
*1476 FILLER_33_144
*1477 FILLER_33_148
*1478 FILLER_33_15
*1479 FILLER_33_154
*1480 FILLER_33_166
*1481 FILLER_33_169
*1482 FILLER_33_181
*1483 FILLER_33_187
*1484 FILLER_33_195
*1485 FILLER_33_202
*1486 FILLER_33_214
*1487 FILLER_33_222
*1488 FILLER_33_225
*1489 FILLER_33_232
*1490 FILLER_33_3
*1491 FILLER_33_36
*1492 FILLER_33_48
*1493 FILLER_33_57
*1494 FILLER_33_69
*1495 FILLER_33_81
*1496 FILLER_34_103
*1497 FILLER_34_117
*1498 FILLER_34_128
*1499 FILLER_34_138
*1500 FILLER_34_141
*1501 FILLER_34_151
*1502 FILLER_34_158
*1503 FILLER_34_162
*1504 FILLER_34_180
*1505 FILLER_34_192
*1506 FILLER_34_197
*1507 FILLER_34_209
*1508 FILLER_34_217
*1509 FILLER_34_221
*1510 FILLER_34_233
*1511 FILLER_34_241
*1512 FILLER_34_26
*1513 FILLER_34_29
*1514 FILLER_34_3
*1515 FILLER_34_47
*1516 FILLER_34_67
*1517 FILLER_34_79
*1518 FILLER_34_83
*1519 FILLER_34_85
*1520 FILLER_34_9
*1521 FILLER_35_101
*1522 FILLER_35_107
*1523 FILLER_35_110
*1524 FILLER_35_113
*1525 FILLER_35_122
*1526 FILLER_35_132
*1527 FILLER_35_136
*1528 FILLER_35_143
*1529 FILLER_35_147
*1530 FILLER_35_155
*1531 FILLER_35_166
*1532 FILLER_35_169
*1533 FILLER_35_177
*1534 FILLER_35_188
*1535 FILLER_35_200
*1536 FILLER_35_204
*1537 FILLER_35_212
*1538 FILLER_35_216
*1539 FILLER_35_220
*1540 FILLER_35_225
*1541 FILLER_35_232
*1542 FILLER_35_3
*1543 FILLER_35_32
*1544 FILLER_35_54
*1545 FILLER_35_57
*1546 FILLER_35_69
*1547 FILLER_35_81
*1548 FILLER_36_103
*1549 FILLER_36_109
*1550 FILLER_36_113
*1551 FILLER_36_117
*1552 FILLER_36_120
*1553 FILLER_36_128
*1554 FILLER_36_141
*1555 FILLER_36_145
*1556 FILLER_36_15
*1557 FILLER_36_151
*1558 FILLER_36_157
*1559 FILLER_36_160
*1560 FILLER_36_169
*1561 FILLER_36_174
*1562 FILLER_36_182
*1563 FILLER_36_194
*1564 FILLER_36_197
*1565 FILLER_36_209
*1566 FILLER_36_217
*1567 FILLER_36_222
*1568 FILLER_36_225
*1569 FILLER_36_231
*1570 FILLER_36_236
*1571 FILLER_36_27
*1572 FILLER_36_29
*1573 FILLER_36_3
*1574 FILLER_36_41
*1575 FILLER_36_53
*1576 FILLER_36_57
*1577 FILLER_36_63
*1578 FILLER_36_66
*1579 FILLER_36_76
*1580 FILLER_36_85
*1581 FILLER_3_103
*1582 FILLER_3_110
*1583 FILLER_3_113
*1584 FILLER_3_12
*1585 FILLER_3_123
*1586 FILLER_3_129
*1587 FILLER_3_135
*1588 FILLER_3_141
*1589 FILLER_3_147
*1590 FILLER_3_155
*1591 FILLER_3_164
*1592 FILLER_3_169
*1593 FILLER_3_173
*1594 FILLER_3_179
*1595 FILLER_3_185
*1596 FILLER_3_196
*1597 FILLER_3_217
*1598 FILLER_3_223
*1599 FILLER_3_225
*1600 FILLER_3_23
*1601 FILLER_3_231
*1602 FILLER_3_237
*1603 FILLER_3_243
*1604 FILLER_3_29
*1605 FILLER_3_3
*1606 FILLER_3_39
*1607 FILLER_3_43
*1608 FILLER_3_51
*1609 FILLER_3_55
*1610 FILLER_3_57
*1611 FILLER_3_69
*1612 FILLER_3_75
*1613 FILLER_3_82
*1614 FILLER_3_89
*1615 FILLER_3_95
*1616 FILLER_4_105
*1617 FILLER_4_109
*1618 FILLER_4_112
*1619 FILLER_4_120
*1620 FILLER_4_127
*1621 FILLER_4_138
*1622 FILLER_4_141
*1623 FILLER_4_145
*1624 FILLER_4_151
*1625 FILLER_4_157
*1626 FILLER_4_163
*1627 FILLER_4_172
*1628 FILLER_4_178
*1629 FILLER_4_184
*1630 FILLER_4_194
*1631 FILLER_4_197
*1632 FILLER_4_20
*1633 FILLER_4_206
*1634 FILLER_4_213
*1635 FILLER_4_219
*1636 FILLER_4_240
*1637 FILLER_4_26
*1638 FILLER_4_29
*1639 FILLER_4_3
*1640 FILLER_4_33
*1641 FILLER_4_43
*1642 FILLER_4_49
*1643 FILLER_4_53
*1644 FILLER_4_71
*1645 FILLER_4_78
*1646 FILLER_4_85
*1647 FILLER_4_9
*1648 FILLER_4_93
*1649 FILLER_5_107
*1650 FILLER_5_111
*1651 FILLER_5_113
*1652 FILLER_5_121
*1653 FILLER_5_125
*1654 FILLER_5_131
*1655 FILLER_5_137
*1656 FILLER_5_143
*1657 FILLER_5_154
*1658 FILLER_5_16
*1659 FILLER_5_166
*1660 FILLER_5_169
*1661 FILLER_5_189
*1662 FILLER_5_197
*1663 FILLER_5_207
*1664 FILLER_5_216
*1665 FILLER_5_222
*1666 FILLER_5_225
*1667 FILLER_5_229
*1668 FILLER_5_238
*1669 FILLER_5_26
*1670 FILLER_5_3
*1671 FILLER_5_34
*1672 FILLER_5_46
*1673 FILLER_5_53
*1674 FILLER_5_57
*1675 FILLER_5_66
*1676 FILLER_5_83
*1677 FILLER_5_89
*1678 FILLER_5_95
*1679 FILLER_6_105
*1680 FILLER_6_111
*1681 FILLER_6_123
*1682 FILLER_6_134
*1683 FILLER_6_141
*1684 FILLER_6_149
*1685 FILLER_6_15
*1686 FILLER_6_156
*1687 FILLER_6_165
*1688 FILLER_6_169
*1689 FILLER_6_184
*1690 FILLER_6_193
*1691 FILLER_6_197
*1692 FILLER_6_212
*1693 FILLER_6_224
*1694 FILLER_6_238
*1695 FILLER_6_26
*1696 FILLER_6_29
*1697 FILLER_6_3
*1698 FILLER_6_36
*1699 FILLER_6_40
*1700 FILLER_6_57
*1701 FILLER_6_63
*1702 FILLER_6_67
*1703 FILLER_6_7
*1704 FILLER_6_71
*1705 FILLER_6_81
*1706 FILLER_6_85
*1707 FILLER_6_90
*1708 FILLER_7_103
*1709 FILLER_7_110
*1710 FILLER_7_113
*1711 FILLER_7_121
*1712 FILLER_7_133
*1713 FILLER_7_143
*1714 FILLER_7_149
*1715 FILLER_7_159
*1716 FILLER_7_165
*1717 FILLER_7_169
*1718 FILLER_7_173
*1719 FILLER_7_181
*1720 FILLER_7_191
*1721 FILLER_7_211
*1722 FILLER_7_220
*1723 FILLER_7_225
*1724 FILLER_7_233
*1725 FILLER_7_242
*1726 FILLER_7_27