*SPEF "ieee 1481-1999"
*DESIGN "tt2_tholin_diceroll"
*DATE "11:11:11 Fri 11 11, 1111"
*VENDOR "OpenRCX"
*PROGRAM "Parallel Extraction"
*VERSION "1.0"
*DESIGN_FLOW "NAME_SCOPE LOCAL" "PIN_CAP NONE"
*DIVIDER /
*DELIMITER :
*BUS_DELIMITER []
*T_UNIT 1 NS
*C_UNIT 1 PF
*R_UNIT 1 OHM
*L_UNIT 1 HENRY

*NAME_MAP
*1 clk
*2 io_in
*3 io_out[0]
*4 io_out[1]
*5 io_out[2]
*6 io_out[3]
*7 io_out[4]
*8 io_out[5]
*9 io_out[6]
*10 io_out[7]
*11 rst
*14 _000_
*15 _001_
*16 _002_
*17 _003_
*18 _004_
*19 _005_
*20 _006_
*21 _007_
*22 _008_
*23 _009_
*24 _010_
*25 _011_
*26 _012_
*27 _013_
*28 _014_
*29 _015_
*30 _016_
*31 _017_
*32 _018_
*33 _019_
*34 _020_
*35 _021_
*36 _022_
*37 _023_
*38 _024_
*39 _025_
*40 _026_
*41 _027_
*42 _028_
*43 _029_
*44 _030_
*45 _031_
*46 _032_
*47 _033_
*48 _034_
*49 _035_
*50 _036_
*51 _037_
*52 _038_
*53 _039_
*54 _040_
*55 _041_
*56 _042_
*57 _043_
*58 _044_
*59 _045_
*60 _046_
*61 _047_
*62 _048_
*63 _049_
*64 _050_
*65 _051_
*66 _052_
*67 _053_
*68 _054_
*69 _055_
*70 _056_
*71 _057_
*72 _058_
*73 _059_
*74 _060_
*75 _061_
*76 _062_
*77 _063_
*78 _064_
*79 _065_
*80 _066_
*81 _067_
*82 _068_
*83 _069_
*84 _070_
*85 _071_
*86 _072_
*87 _073_
*88 _074_
*89 _075_
*90 _076_
*91 _077_
*92 _078_
*93 _079_
*94 _080_
*95 _081_
*96 _082_
*97 _083_
*98 _084_
*99 _085_
*100 _086_
*101 _087_
*102 _088_
*103 _089_
*104 _090_
*105 _091_
*106 _092_
*107 _093_
*108 _094_
*109 _095_
*110 _096_
*111 _097_
*112 _098_
*113 _099_
*114 _100_
*115 _101_
*116 _102_
*117 _103_
*118 _104_
*119 _105_
*120 _106_
*121 _107_
*122 _108_
*123 _109_
*124 _110_
*125 _111_
*126 _112_
*127 _113_
*128 _114_
*129 _115_
*130 _116_
*131 _117_
*132 _118_
*133 _119_
*134 _120_
*135 _121_
*136 _122_
*137 _123_
*138 _124_
*139 _125_
*140 _126_
*141 _127_
*142 _128_
*143 _129_
*144 _130_
*145 _131_
*146 _132_
*147 _133_
*148 _134_
*149 _135_
*150 _136_
*151 _137_
*152 _138_
*153 _139_
*154 _140_
*155 _141_
*156 _142_
*157 _143_
*158 _144_
*159 _145_
*160 _146_
*161 _147_
*162 _148_
*163 _149_
*164 _150_
*165 _151_
*166 _152_
*167 _153_
*168 _154_
*169 _155_
*170 _156_
*171 _157_
*172 _158_
*173 _159_
*174 _160_
*175 _161_
*176 _162_
*177 _163_
*178 _164_
*179 _165_
*180 _166_
*181 _167_
*182 _168_
*183 _169_
*184 _170_
*185 _171_
*186 _172_
*187 _173_
*188 _174_
*189 _175_
*190 _176_
*191 _177_
*192 _178_
*193 _179_
*194 _180_
*195 clknet_0_clk
*196 clknet_2_0__leaf_clk
*197 clknet_2_1__leaf_clk
*198 clknet_2_2__leaf_clk
*199 clknet_2_3__leaf_clk
*200 dice\.bcd\[0\]
*201 dice\.bcd\[1\]
*202 dice\.bcd\[2\]
*203 dice\.clkdiv\[0\]
*204 dice\.clkdiv\[1\]
*205 dice\.clkdiv\[2\]
*206 dice\.clkdiv\[3\]
*207 dice\.clkdiv\[4\]
*208 dice\.clkdiv\[5\]
*209 dice\.clkdiv\[6\]
*210 dice\.clkdiv\[7\]
*211 dice\.counter\[0\]
*212 dice\.counter\[10\]
*213 dice\.counter\[11\]
*214 dice\.counter\[12\]
*215 dice\.counter\[13\]
*216 dice\.counter\[14\]
*217 dice\.counter\[15\]
*218 dice\.counter\[1\]
*219 dice\.counter\[2\]
*220 dice\.counter\[3\]
*221 dice\.counter\[4\]
*222 dice\.counter\[5\]
*223 dice\.counter\[6\]
*224 dice\.counter\[7\]
*225 dice\.counter\[8\]
*226 dice\.counter\[9\]
*227 dice\.lfsr\[0\]
*228 dice\.lfsr\[10\]
*229 dice\.lfsr\[11\]
*230 dice\.lfsr\[12\]
*231 dice\.lfsr\[13\]
*232 dice\.lfsr\[14\]
*233 dice\.lfsr\[15\]
*234 dice\.lfsr\[1\]
*235 dice\.lfsr\[2\]
*236 dice\.lfsr\[3\]
*237 dice\.lfsr\[4\]
*238 dice\.lfsr\[5\]
*239 dice\.lfsr\[6\]
*240 dice\.lfsr\[7\]
*241 dice\.lfsr\[8\]
*242 dice\.lfsr\[9\]
*243 dice\.r_counter\[0\]
*244 dice\.r_counter\[1\]
*245 dice\.r_counter\[2\]
*246 net1
*247 net10
*248 net11
*249 net12
*250 net13
*251 net14
*252 net15
*253 net16
*254 net17
*255 net18
*256 net19
*257 net2
*258 net20
*259 net21
*260 net3
*261 net4
*262 net5
*263 net6
*264 net7
*265 net8
*266 net9
*267 FILLER_0_111
*268 FILLER_0_113
*269 FILLER_0_12
*270 FILLER_0_121
*271 FILLER_0_128
*272 FILLER_0_141
*273 FILLER_0_149
*274 FILLER_0_157
*275 FILLER_0_165
*276 FILLER_0_169
*277 FILLER_0_177
*278 FILLER_0_186
*279 FILLER_0_194
*280 FILLER_0_197
*281 FILLER_0_203
*282 FILLER_0_210
*283 FILLER_0_24
*284 FILLER_0_29
*285 FILLER_0_3
*286 FILLER_0_41
*287 FILLER_0_53
*288 FILLER_0_57
*289 FILLER_0_63
*290 FILLER_0_70
*291 FILLER_0_82
*292 FILLER_0_85
*293 FILLER_0_99
*294 FILLER_10_105
*295 FILLER_10_112
*296 FILLER_10_122
*297 FILLER_10_130
*298 FILLER_10_138
*299 FILLER_10_141
*300 FILLER_10_15
*301 FILLER_10_150
*302 FILLER_10_162
*303 FILLER_10_170
*304 FILLER_10_177
*305 FILLER_10_187
*306 FILLER_10_194
*307 FILLER_10_197
*308 FILLER_10_204
*309 FILLER_10_27
*310 FILLER_10_29
*311 FILLER_10_3
*312 FILLER_10_33
*313 FILLER_10_43
*314 FILLER_10_51
*315 FILLER_10_56
*316 FILLER_10_65
*317 FILLER_10_69
*318 FILLER_10_74
*319 FILLER_10_82
*320 FILLER_10_85
*321 FILLER_10_9
*322 FILLER_10_93
*323 FILLER_11_100
*324 FILLER_11_104
*325 FILLER_11_110
*326 FILLER_11_113
*327 FILLER_11_120
*328 FILLER_11_134
*329 FILLER_11_138
*330 FILLER_11_142
*331 FILLER_11_156
*332 FILLER_11_162
*333 FILLER_11_166
*334 FILLER_11_169
*335 FILLER_11_179
*336 FILLER_11_191
*337 FILLER_11_195
*338 FILLER_11_201
*339 FILLER_11_209
*340 FILLER_11_27
*341 FILLER_11_3
*342 FILLER_11_39
*343 FILLER_11_47
*344 FILLER_11_52
*345 FILLER_11_57
*346 FILLER_11_62
*347 FILLER_11_66
*348 FILLER_11_75
*349 FILLER_11_83
*350 FILLER_11_90
*351 FILLER_12_110
*352 FILLER_12_118
*353 FILLER_12_136
*354 FILLER_12_141
*355 FILLER_12_149
*356 FILLER_12_159
*357 FILLER_12_171
*358 FILLER_12_178
*359 FILLER_12_190
*360 FILLER_12_197
*361 FILLER_12_205
*362 FILLER_12_21
*363 FILLER_12_211
*364 FILLER_12_27
*365 FILLER_12_29
*366 FILLER_12_3
*367 FILLER_12_36
*368 FILLER_12_60
*369 FILLER_12_64
*370 FILLER_12_7
*371 FILLER_12_81
*372 FILLER_12_85
*373 FILLER_12_90
*374 FILLER_13_110
*375 FILLER_13_113
*376 FILLER_13_137
*377 FILLER_13_149
*378 FILLER_13_15
*379 FILLER_13_154
*380 FILLER_13_166
*381 FILLER_13_169
*382 FILLER_13_178
*383 FILLER_13_185
*384 FILLER_13_197
*385 FILLER_13_205
*386 FILLER_13_211
*387 FILLER_13_23
*388 FILLER_13_3
*389 FILLER_13_42
*390 FILLER_13_54
*391 FILLER_13_57
*392 FILLER_13_69
*393 FILLER_13_88
*394 FILLER_14_12
*395 FILLER_14_121
*396 FILLER_14_133
*397 FILLER_14_139
*398 FILLER_14_141
*399 FILLER_14_149
*400 FILLER_14_156
*401 FILLER_14_169
*402 FILLER_14_181
*403 FILLER_14_189
*404 FILLER_14_19
*405 FILLER_14_194
*406 FILLER_14_197
*407 FILLER_14_207
*408 FILLER_14_211
*409 FILLER_14_27
*410 FILLER_14_29
*411 FILLER_14_3
*412 FILLER_14_41
*413 FILLER_14_65
*414 FILLER_14_7
*415 FILLER_14_71
*416 FILLER_14_75
*417 FILLER_14_83
*418 FILLER_14_85
*419 FILLER_14_97
*420 FILLER_15_106
*421 FILLER_15_113
*422 FILLER_15_137
*423 FILLER_15_149
*424 FILLER_15_16
*425 FILLER_15_160
*426 FILLER_15_169
*427 FILLER_15_177
*428 FILLER_15_185
*429 FILLER_15_192
*430 FILLER_15_196
*431 FILLER_15_203
*432 FILLER_15_211
*433 FILLER_15_24
*434 FILLER_15_3
*435 FILLER_15_43
*436 FILLER_15_55
*437 FILLER_15_57
*438 FILLER_15_69
*439 FILLER_15_94
*440 FILLER_16_109
*441 FILLER_16_121
*442 FILLER_16_13
*443 FILLER_16_133
*444 FILLER_16_139
*445 FILLER_16_141
*446 FILLER_16_149
*447 FILLER_16_157
*448 FILLER_16_178
*449 FILLER_16_194
*450 FILLER_16_197
*451 FILLER_16_206
*452 FILLER_16_25
*453 FILLER_16_29
*454 FILLER_16_3
*455 FILLER_16_41
*456 FILLER_16_63
*457 FILLER_16_75
*458 FILLER_16_83
*459 FILLER_16_85
*460 FILLER_16_9
*461 FILLER_16_97
*462 FILLER_17_10
*463 FILLER_17_111
*464 FILLER_17_113
*465 FILLER_17_121
*466 FILLER_17_138
*467 FILLER_17_150
*468 FILLER_17_158
*469 FILLER_17_166
*470 FILLER_17_169
*471 FILLER_17_182
*472 FILLER_17_193
*473 FILLER_17_204
*474 FILLER_17_22
*475 FILLER_17_3
*476 FILLER_17_45
*477 FILLER_17_53
*478 FILLER_17_57
*479 FILLER_17_75
*480 FILLER_17_87
*481 FILLER_17_99
*482 FILLER_18_109
*483 FILLER_18_12
*484 FILLER_18_131
*485 FILLER_18_139
*486 FILLER_18_141
*487 FILLER_18_154
*488 FILLER_18_164
*489 FILLER_18_179
*490 FILLER_18_186
*491 FILLER_18_193
*492 FILLER_18_197
*493 FILLER_18_206
*494 FILLER_18_24
*495 FILLER_18_29
*496 FILLER_18_3
*497 FILLER_18_50
*498 FILLER_18_62
*499 FILLER_18_82
*500 FILLER_18_85
*501 FILLER_18_91
*502 FILLER_19_108
*503 FILLER_19_113
*504 FILLER_19_12
*505 FILLER_19_131
*506 FILLER_19_143
*507 FILLER_19_155
*508 FILLER_19_167
*509 FILLER_19_169
*510 FILLER_19_180
*511 FILLER_19_186
*512 FILLER_19_192
*513 FILLER_19_202
*514 FILLER_19_210
*515 FILLER_19_24
*516 FILLER_19_3
*517 FILLER_19_32
*518 FILLER_19_49
*519 FILLER_19_55
*520 FILLER_19_57
*521 FILLER_19_69
*522 FILLER_19_7
*523 FILLER_19_96
*524 FILLER_1_105
*525 FILLER_1_111
*526 FILLER_1_113
*527 FILLER_1_125
*528 FILLER_1_137
*529 FILLER_1_149
*530 FILLER_1_15
*531 FILLER_1_161
*532 FILLER_1_167
*533 FILLER_1_169
*534 FILLER_1_181
*535 FILLER_1_193
*536 FILLER_1_205
*537 FILLER_1_211
*538 FILLER_1_27
*539 FILLER_1_3
*540 FILLER_1_39
*541 FILLER_1_51
*542 FILLER_1_55
*543 FILLER_1_57
*544 FILLER_1_69
*545 FILLER_1_81
*546 FILLER_1_93
*547 FILLER_20_109
*548 FILLER_20_121
*549 FILLER_20_133
*550 FILLER_20_139
*551 FILLER_20_14
*552 FILLER_20_141
*553 FILLER_20_153
*554 FILLER_20_165
*555 FILLER_20_177
*556 FILLER_20_189
*557 FILLER_20_195
*558 FILLER_20_197
*559 FILLER_20_206
*560 FILLER_20_26
*561 FILLER_20_29
*562 FILLER_20_3
*563 FILLER_20_41
*564 FILLER_20_69
*565 FILLER_20_81
*566 FILLER_20_85
*567 FILLER_20_97
*568 FILLER_21_102
*569 FILLER_21_110
*570 FILLER_21_113
*571 FILLER_21_119
*572 FILLER_21_136
*573 FILLER_21_148
*574 FILLER_21_15
*575 FILLER_21_159
*576 FILLER_21_167
*577 FILLER_21_169
*578 FILLER_21_179
*579 FILLER_21_187
*580 FILLER_21_193
*581 FILLER_21_205
*582 FILLER_21_211
*583 FILLER_21_24
*584 FILLER_21_3
*585 FILLER_21_47
*586 FILLER_21_55
*587 FILLER_21_57
*588 FILLER_21_75
*589 FILLER_21_83
*590 FILLER_22_111
*591 FILLER_22_119
*592 FILLER_22_137
*593 FILLER_22_141
*594 FILLER_22_15
*595 FILLER_22_156
*596 FILLER_22_177
*597 FILLER_22_186
*598 FILLER_22_194
*599 FILLER_22_197
*600 FILLER_22_207
*601 FILLER_22_211
*602 FILLER_22_27
*603 FILLER_22_29
*604 FILLER_22_3
*605 FILLER_22_50
*606 FILLER_22_62
*607 FILLER_22_82
*608 FILLER_22_85
*609 FILLER_22_9
*610 FILLER_22_91
*611 FILLER_23_110
*612 FILLER_23_113
*613 FILLER_23_131
*614 FILLER_23_143
*615 FILLER_23_149
*616 FILLER_23_156
*617 FILLER_23_16
*618 FILLER_23_169
*619 FILLER_23_181
*620 FILLER_23_193
*621 FILLER_23_199
*622 FILLER_23_203
*623 FILLER_23_211
*624 FILLER_23_28
*625 FILLER_23_3
*626 FILLER_23_40
*627 FILLER_23_52
*628 FILLER_23_57
*629 FILLER_23_69
*630 FILLER_23_77
*631 FILLER_23_9
*632 FILLER_23_98
*633 FILLER_24_121
*634 FILLER_24_13
*635 FILLER_24_133
*636 FILLER_24_139
*637 FILLER_24_141
*638 FILLER_24_149
*639 FILLER_24_156
*640 FILLER_24_168
*641 FILLER_24_174
*642 FILLER_24_180
*643 FILLER_24_192
*644 FILLER_24_197
*645 FILLER_24_209
*646 FILLER_24_25
*647 FILLER_24_29
*648 FILLER_24_3
*649 FILLER_24_41
*650 FILLER_24_65
*651 FILLER_24_77
*652 FILLER_24_83
*653 FILLER_24_85
*654 FILLER_24_97
*655 FILLER_25_104
*656 FILLER_25_113
*657 FILLER_25_119
*658 FILLER_25_13
*659 FILLER_25_136
*660 FILLER_25_142
*661 FILLER_25_146
*662 FILLER_25_159
*663 FILLER_25_166
*664 FILLER_25_169
*665 FILLER_25_17
*666 FILLER_25_175
*667 FILLER_25_183
*668 FILLER_25_191
*669 FILLER_25_204
*670 FILLER_25_3
*671 FILLER_25_34
*672 FILLER_25_54
*673 FILLER_25_57
*674 FILLER_25_69
*675 FILLER_25_7
*676 FILLER_25_92
*677 FILLER_26_105
*678 FILLER_26_117
*679 FILLER_26_136
*680 FILLER_26_14
*681 FILLER_26_141
*682 FILLER_26_149
*683 FILLER_26_156
*684 FILLER_26_172
*685 FILLER_26_176
*686 FILLER_26_185
*687 FILLER_26_193
*688 FILLER_26_197
*689 FILLER_26_207
*690 FILLER_26_211
*691 FILLER_26_26
*692 FILLER_26_29
*693 FILLER_26_3
*694 FILLER_26_41
*695 FILLER_26_61
*696 FILLER_26_81
*697 FILLER_26_85
*698 FILLER_27_109
*699 FILLER_27_113
*700 FILLER_27_131
*701 FILLER_27_14
*702 FILLER_27_143
*703 FILLER_27_155
*704 FILLER_27_167
*705 FILLER_27_169
*706 FILLER_27_180
*707 FILLER_27_192
*708 FILLER_27_198
*709 FILLER_27_202
*710 FILLER_27_210
*711 FILLER_27_26
*712 FILLER_27_3
*713 FILLER_27_44
*714 FILLER_27_57
*715 FILLER_27_69
*716 FILLER_27_7
*717 FILLER_27_81
*718 FILLER_28_109
*719 FILLER_28_12
*720 FILLER_28_121
*721 FILLER_28_133
*722 FILLER_28_139
*723 FILLER_28_141
*724 FILLER_28_152
*725 FILLER_28_160
*726 FILLER_28_164
*727 FILLER_28_172
*728 FILLER_28_184
*729 FILLER_28_192
*730 FILLER_28_197
*731 FILLER_28_204
*732 FILLER_28_24
*733 FILLER_28_29
*734 FILLER_28_3
*735 FILLER_28_48
*736 FILLER_28_68
*737 FILLER_28_7
*738 FILLER_28_80
*739 FILLER_28_85
*740 FILLER_28_97
*741 FILLER_29_106
*742 FILLER_29_113
*743 FILLER_29_132
*744 FILLER_29_14
*745 FILLER_29_144
*746 FILLER_29_153
*747 FILLER_29_162
*748 FILLER_29_169
*749 FILLER_29_176
*750 FILLER_29_180
*751 FILLER_29_184
*752 FILLER_29_196
*753 FILLER_29_208
*754 FILLER_29_23
*755 FILLER_29_3
*756 FILLER_29_45
*757 FILLER_29_53
*758 FILLER_29_57
*759 FILLER_29_69
*760 FILLER_29_86
*761 FILLER_2_109
*762 FILLER_2_121
*763 FILLER_2_133
*764 FILLER_2_139
*765 FILLER_2_141
*766 FILLER_2_15
*767 FILLER_2_153
*768 FILLER_2_165
*769 FILLER_2_177
*770 FILLER_2_189
*771 FILLER_2_195
*772 FILLER_2_197
*773 FILLER_2_209
*774 FILLER_2_27
*775 FILLER_2_29
*776 FILLER_2_3
*777 FILLER_2_41
*778 FILLER_2_53
*779 FILLER_2_65
*780 FILLER_2_77
*781 FILLER_2_83
*782 FILLER_2_85
*783 FILLER_2_97
*784 FILLER_30_105
*785 FILLER_30_11
*786 FILLER_30_113
*787 FILLER_30_132
*788 FILLER_30_141
*789 FILLER_30_147
*790 FILLER_30_153
*791 FILLER_30_162
*792 FILLER_30_169
*793 FILLER_30_181
*794 FILLER_30_193
*795 FILLER_30_197
*796 FILLER_30_209
*797 FILLER_30_24
*798 FILLER_30_29
*799 FILLER_30_3
*800 FILLER_30_47
*801 FILLER_30_59
*802 FILLER_30_63
*803 FILLER_30_80
*804 FILLER_30_85
*805 FILLER_31_105
*806 FILLER_31_110
*807 FILLER_31_113
*808 FILLER_31_117
*809 FILLER_31_134
*810 FILLER_31_141
*811 FILLER_31_149
*812 FILLER_31_159
*813 FILLER_31_16
*814 FILLER_31_167
*815 FILLER_31_169
*816 FILLER_31_173
*817 FILLER_31_178
*818 FILLER_31_186
*819 FILLER_31_194
*820 FILLER_31_197
*821 FILLER_31_209
*822 FILLER_31_29
*823 FILLER_31_3
*824 FILLER_31_41
*825 FILLER_31_53
*826 FILLER_31_57
*827 FILLER_31_69
*828 FILLER_31_81
*829 FILLER_31_85
*830 FILLER_31_97
*831 FILLER_3_105
*832 FILLER_3_111
*833 FILLER_3_113
*834 FILLER_3_119
*835 FILLER_3_130
*836 FILLER_3_142
*837 FILLER_3_15
*838 FILLER_3_154
*839 FILLER_3_166
*840 FILLER_3_169
*841 FILLER_3_181
*842 FILLER_3_193
*843 FILLER_3_205
*844 FILLER_3_211
*845 FILLER_3_27
*846 FILLER_3_3
*847 FILLER_3_39
*848 FILLER_3_51
*849 FILLER_3_55
*850 FILLER_3_57
*851 FILLER_3_69
*852 FILLER_3_81
*853 FILLER_3_93
*854 FILLER_4_107
*855 FILLER_4_120
*856 FILLER_4_126
*857 FILLER_4_133
*858 FILLER_4_139
*859 FILLER_4_141
*860 FILLER_4_149
*861 FILLER_4_15
*862 FILLER_4_161
*863 FILLER_4_173
*864 FILLER_4_185
*865 FILLER_4_193
*866 FILLER_4_197
*867 FILLER_4_209
*868 FILLER_4_27
*869 FILLER_4_29
*870 FILLER_4_3
*871 FILLER_4_44
*872 FILLER_4_63
*873 FILLER_4_67
*874 FILLER_4_76
*875 FILLER_4_85
*876 FILLER_4_97
*877 FILLER_5_110
*878 FILLER_5_113
*879 FILLER_5_118
*880 FILLER_5_12
*881 FILLER_5_130
*882 FILLER_5_143
*883 FILLER_5_166
*884 FILLER_5_169
*885 FILLER_5_18
*886 FILLER_5_181
*887 FILLER_5_193
*888 FILLER_5_205
*889 FILLER_5_211
*890 FILLER_5_22
*891 FILLER_5_3
*892 FILLER_5_34
*893 FILLER_5_46
*894 FILLER_5_50
*895 FILLER_5_54
*896 FILLER_5_57
*897 FILLER_5_65
*898 FILLER_5_74
*899 FILLER_5_86
*900 FILLER_5_98
*901 FILLER_6_100
*902 FILLER_6_108
*903 FILLER_6_120
*904 FILLER_6_133
*905 FILLER_6_139
*906 FILLER_6_141
*907 FILLER_6_147
*908 FILLER_6_157
*909 FILLER_6_16
*910 FILLER_6_170
*911 FILLER_6_183
*912 FILLER_6_195
*913 FILLER_6_197
*914 FILLER_6_209
*915 FILLER_6_25
*916 FILLER_6_29
*917 FILLER_6_3
*918 FILLER_6_41
*919 FILLER_6_60
*920 FILLER_6_68
*921 FILLER_6_82
*922 FILLER_6_85
*923 FILLER_7_103
*924 FILLER_7_11
*925 FILLER_7_110
*926 FILLER_7_113
*927 FILLER_7_123
*928 FILLER_7_131
*929 FILLER_7_140
*930 FILLER_7_152
*931 FILLER_7_164
*932 FILLER_7_169
*933 FILLER_7_176
*934 FILLER_7_185
*935 FILLER_7_19
*936 FILLER_7_200
*937 FILLER_7_23
*938 FILLER_7_3
*939 FILLER_7_36
*940 FILLER_7_45
*941 FILLER_7_52
*942 FILLER_7_57
*943 FILLER_7_7
*944 FILLER_7_75
*945 FILLER_7_79
*946 FILLER_7_88
*947 FILLER_7_99
*948 FILLER_8_103
*949 FILLER_8_111
*950 FILLER_8_122
*951 FILLER_8_133
*952 FILLER_8_139
*953 FILLER_8_141
*954 FILLER_8_152
*955 FILLER_8_164
*956 FILLER_8_172
*957 FILLER_8_178
*958 FILLER_8_186
*959 FILLER_8_194
*960 FILLER_8_197
*961 FILLER_8_20
*962 FILLER_8_209
*963 FILLER_8_29
*964 FILLER_8_3
*965 FILLER_8_41
*966 FILLER_8_51
*967 FILLER_8_61
*968 FILLER_8_76
*969 FILLER_8_85
*970 FILLER_8_97
*971 FILLER_9_101
*972 FILLER_9_109
*973 FILLER_9_113
*974 FILLER_9_125
*975 FILLER_9_133
*976 FILLER_9_141
*977 FILLER_9_153
*978 FILLER_9_164
*979 FILLER_9_169
*980 FILLER_9_179
*981 FILLER_9_18
*982 FILLER_9_189
*983 FILLER_9_200
*984 FILLER_9_3
*985 FILLER_9_30
*986 FILLER_9_38
*987 FILLER_9_42
*988 FILLER_9_46
*989 FILLER_9_53
*990 FILLER_9_57
*991 FILLER_9_69
*992 FILLER_9_81
*993 FILLER_9_93
*994 PHY_0
*995 PHY_1
*996 PHY_10
*997 PHY_11
*998 PHY_12
*999 PHY_13
*1000 PHY_14
*1001 PHY_15
*1002 PHY_16
*1003 PHY_17
*1004 PHY_18
*1005 PHY_19
*1006 PHY_2
*1007 PHY_20
*1008 PHY_21
*1009 PHY_22
*1010 PHY_23
*1011 PHY_24
*1012 PHY_25
*1013 PHY_26
*1014 PHY_27
*1015 PHY_28
*1016 PHY_29
*1017 PHY_3
*1018 PHY_30
*1019 PHY_31
*1020 PHY_32
*1021 PHY_33
*1022 PHY_34
*1023 PHY_35
*1024 PHY_36
*1025 PHY_37
*1026 PHY_38
*1027 PHY_39
*1028 PHY_4
*1029 PHY_40
*1030 PHY_41
*1031 PHY_42
*1032 PHY_43
*1033 PHY_44
*1034 PHY_45
*1035 PHY_46
*1036 PHY_47
*1037 PHY_48
*1038 PHY_49
*1039 PHY_5
*1040 PHY_50
*1041 PHY_51
*1042 PHY_52
*1043 PHY_53
*1044 PHY_54
*1045 PHY_55
*1046 PHY_56
*1047 PHY_57
*1048 PHY_58
*1049 PHY_59
*1050 PHY_6
*1051 PHY_60
*1052 PHY_61
*1053 PHY_62
*1054 PHY_63
*1055 PHY_7
*1056 PHY_8
*1057 PHY_9
*1058 TAP_100
*1059 TAP_101
*1060 TAP_102
*1061 TAP_103
*1062 TAP_104
*1063 TAP_105
*1064 TAP_106
*1065 TAP_107
*1066 TAP_108
*1067 TAP_109
*1068 TAP_110
*1069 TAP_111
*1070 TAP_112
*1071 TAP_113
*1072 TAP_114
*1073 TAP_115
*1074 TAP_116
*1075 TAP_117
*1076 TAP_118
*1077 TAP_119
*1078 TAP_120
*1079 TAP_121
*1080 TAP_122
*1081 TAP_123
*1082 TAP_124
*1083 TAP_125
*1084 TAP_126
*1085 TAP_127
*1086 TAP_128
*1087 TAP_129
*1088 TAP_130
*1089 TAP_131
*1090 TAP_132
*1091 TAP_133
*1092 TAP_134
*1093 TAP_135
*1094 TAP_136
*1095 TAP_137
*1096 TAP_138
*1097 TAP_139
*1098 TAP_140
*1099 TAP_141
*1100 TAP_142
*1101 TAP_143
*1102 TAP_144
*1103 TAP_145
*1104 TAP_146
*1105 TAP_147
*1106 TAP_148
*1107 TAP_149
*1108 TAP_150
*1109 TAP_151
*1110 TAP_152
*1111 TAP_153
*1112 TAP_154
*1113 TAP_155
*1114 TAP_156
*1115 TAP_157
*1116 TAP_158
*1117 TAP_159
*1118 TAP_160
*1119 TAP_161
*1120 TAP_162
*1121 TAP_163
*1122 TAP_164
*1123 TAP_165
*1124 TAP_166
*1125 TAP_167
*1126 TAP_168
*1127 TAP_169
*1128 TAP_170
*1129 TAP_171
*1130 TAP_172
*1131 TAP_173
*1132 TAP_174
*1133 TAP_175
*1134 TAP_176
*1135 TAP_177
*1136 TAP_178
*1137 TAP_179
*1138 TAP_180
*1139 TAP_181
*1140 TAP_182
*1141 TAP_64
*1142 TAP_65
*1143 TAP_66
*1144 TAP_67
*1145 TAP_68
*1146 TAP_69
*1147 TAP_70
*1148 TAP_71
*1149 TAP_72
*1150 TAP_73
*1151 TAP_74
*1152 TAP_75
*1153 TAP_76
*1154 TAP_77
*1155 TAP_78
*1156 TAP_79
*1157 TAP_80
*1158 TAP_81
*1159 TAP_82
*1160 TAP_83
*1161 TAP_84
*1162 TAP_85
*1163 TAP_86
*1164 TAP_87
*1165 TAP_88
*1166 TAP_89
*1167 TAP_90
*1168 TAP_91
*1169 TAP_92
*1170 TAP_93
*1171 TAP_94
*1172 TAP_95
*1173 TAP_96
*1174 TAP_97
*1175 TAP_98
*1176 TAP_99
*1177 _181_
*1178 _182_
*1179 _183_
*1180 _184_
*1181 _185_
*1182 _186_
*1183 _187_
*1184 _188_
*1185 _189_
*1186 _190_
*1187 _191_
*1188 _192_
*1189 _193_
*1190 _194_
*1191 _195_
*1192 _196_
*1193 _197_
*1194 _198_
*1195 _199_
*1196 _200_
*1197 _201_
*1198 _202_
*1199 _203_
*1200 _204_
*1201 _205_
*1202 _206_
*1203 _207_
*1204 _208_
*1205 _209_
*1206 _210_
*1207 _211_
*1208 _212_
*1209 _213_
*1210 _214_
*1211 _215_
*1212 _216_
*1213 _217_
*1214 _218_
*1215 _219_
*1216 _220_
*1217 _221_
*1218 _222_
*1219 _223_
*1220 _224_
*1221 _225_
*1222 _226_
*1223 _227_
*1224 _228_
*1225 _229_
*1226 _230_
*1227 _231_
*1228 _232_
*1229 _233_
*1230 _234_
*1231 _235_
*1232 _236_
*1233 _237_
*1234 _238_
*1235 _239_
*1236 _240_
*1237 _241_
*1238 _242_
*1239 _243_
*1240 _244_
*1241 _245_
*1242 _246_
*1243 _247_
*1244 _248_
*1245 _249_
*1246 _250_
*1247 _251_
*1248 _252_
*1249 _253_
*1250 _254_
*1251 _255_
*1252 _256_
*1253 _257_
*1254 _258_
*1255 _259_
*1256 _260_
*1257 _261_
*1258 _262_
*1259 _263_
*1260 _264_
*1261 _265_
*1262 _266_
*1263 _267_
*1264 _268_
*1265 _269_
*1266 _270_
*1267 _271_
*1268 _272_
*1269 _273_
*1270 _274_
*1271 _275_
*1272 _276_
*1273 _277_
*1274 _278_
*1275 _279_
*1276 _280_
*1277 _281_
*1278 _282_
*1279 _283_
*1280 _284_
*1281 _285_
*1282 _286_
*1283 _287_
*1284 _288_
*1285 _289_
*1286 _290_
*1287 _291_
*1288 _292_
*1289 _293_
*1290 _294_
*1291 _295_
*1292 _296_
*1293 _297_
*1294 _298_
*1295 _299_
*1296 _300_
*1297 _301_
*1298 _302_
*1299 _303_
*1300 _304_
*1301 _305_
*1302 _306_
*1303 _307_
*1304 _308_
*1305 _309_
*1306 _310_
*1307 _311_
*1308 _312_
*1309 _313_
*1310 _314_
*1311 _315_
*1312 _316_
*1313 _317_
*1314 _318_
*1315 _319_
*1316 _320_
*1317 _321_
*1318 _322_
*1319 _323_
*1320 _324_
*1321 _325_
*1322 _326_
*1323 _327_
*1324 _328_
*1325 _329_
*1326 _330_
*1327 _331_
*1328 _332_
*1329 _333_
*1330 _334_
*1331 _335_
*1332 _336_
*1333 _337_
*1334 _338_
*1335 _339_
*1336 _340_
*1337 _341_
*1338 _342_
*1339 _343_
*1340 _344_
*1341 _345_
*1342 _346_
*1343 _347_
*1344 _348_
*1345 _349_
*1346 _350_
*1347 _351_
*1348 _352_
*1349 _353_
*1350 _354_
*1351 _355_
*1352 _356_
*1353 _357_
*1354 _358_
*1355 _359_
*1356 _360_
*1357 _361_
*1358 _362_
*1359 _363_
*1360 _364_
*1361 _365_
*1362 _366_
*1363 _367_
*1364 _368_
*1365 _369_
*1366 _370_
*1367 _371_
*1368 _372_
*1369 _373_
*1370 _374_
*1371 _375_
*1372 _376_
*1373 _377_
*1374 _378_
*1375 _379_
*1376 _380_
*1377 _381_
*1378 _382_
*1379 _383_
*1380 _384_
*1381 _385_
*1382 _386_
*1383 _387_
*1384 _388_
*1385 _389_
*1386 _390_
*1387 _391_
*1388 _392_
*1389 _393_
*1390 _394_
*1391 _395_
*1392 _396_
*1393 _397_
*1394 _398_
*1395 _399_
*1396 _400_
*1397 _401_
*1398 _402_
*1399 _403_
*1400 _404_
*1401 _405_
*1402 _406_
*1403 _407_
*1404 _408_
*1405 _409_
*1406 _410_
*1407 _411_
*1408 _412_
*1409 _413_
*1410 _414_
*1411 _415_
*1412 clkbuf_0_clk
*1413 clkbuf_2_0__f_clk
*1414 clkbuf_2_1__f_clk
*1415 clkbuf_2_2__f_clk
*1416 clkbuf_2_3__f_clk
*1417 fanout11
*1418 fanout12
*1419 fanout13
*1420 fanout14
*1421 fanout15
*1422 fanout16
*1423 fanout17
*1424 fanout18
*1425 fanout19
*1426 fanout20
*1427 fanout21
*1428 input1
*1429 input2
*1430 output10
*1431 output3
*1432 output4
*1433 output5
*1434 output6
*1435 output7
*1436 output8
*1437 output9

*PORTS
clk I
io_in I
io_out[0] O
io_out[1] O
io_out[2] O
io_out[3] O
io_out[4] O
io_out[5] O
io_out[6] O
io_out[7] O
rst I

*D_NET *1 0.00419519
*CONN
*P clk I
*I *1412:A I *D sky130_fd_sc_hd__clkbuf_16
*CAP
1 clk 0.000829682
2 *1412:A 0
3 *1:23 0.00126791
4 *1:9 0.0020976
5 *1:9 *1405:D 0
6 *1:9 *51:11 0
7 *1:9 *52:11 0
8 *1:9 *59:8 0
9 *1:9 *235:8 0
10 *1:23 *1389:D 0
11 *1:23 *1408:CLK 0
12 *1:23 *60:11 0
13 *1:23 *64:9 0
14 *1:23 *198:38 0
15 *1:23 *198:43 0
16 *1:23 *198:55 0
*RES
1 clk *1:9 30.6071 
2 *1:9 *1:23 46.4643 
3 *1:23 *1412:A 9.3 
*END

*D_NET *2 0.000893844
*CONN
*P io_in I
*I *1428:A I *D sky130_fd_sc_hd__clkbuf_2
*CAP
1 io_in 0.000446922
2 *1428:A 0.000446922
3 *1428:A *1331:B1 0
4 *1428:A *1427:A 0
*RES
1 io_in *1428:A 29.3 
*END

*D_NET *3 0.00068272
*CONN
*P io_out[0] O
*I *1431:X O *D sky130_fd_sc_hd__buf_4
*CAP
1 io_out[0] 0.00034136
2 *1431:X 0.00034136
*RES
1 *1431:X io_out[0] 26.8536 
*END

*D_NET *4 0.00068272
*CONN
*P io_out[1] O
*I *1432:X O *D sky130_fd_sc_hd__buf_4
*CAP
1 io_out[1] 0.00034136
2 *1432:X 0.00034136
*RES
1 *1432:X io_out[1] 26.8536 
*END

*D_NET *5 0.00068272
*CONN
*P io_out[2] O
*I *1433:X O *D sky130_fd_sc_hd__buf_4
*CAP
1 io_out[2] 0.00034136
2 *1433:X 0.00034136
*RES
1 *1433:X io_out[2] 26.8536 
*END

*D_NET *6 0.000722079
*CONN
*P io_out[3] O
*I *1434:X O *D sky130_fd_sc_hd__buf_4
*CAP
1 io_out[3] 0.000361039
2 *1434:X 0.000361039
3 io_out[3] *1435:A 0
*RES
1 *1434:X io_out[3] 27.2643 
*END

*D_NET *7 0.000722079
*CONN
*P io_out[4] O
*I *1435:X O *D sky130_fd_sc_hd__buf_4
*CAP
1 io_out[4] 0.000361039
2 *1435:X 0.000361039
3 io_out[4] *1435:A 0
4 io_out[4] *266:19 0
*RES
1 *1435:X io_out[4] 27.2643 
*END

*D_NET *8 0.000722079
*CONN
*P io_out[5] O
*I *1436:X O *D sky130_fd_sc_hd__buf_4
*CAP
1 io_out[5] 0.000361039
2 *1436:X 0.000361039
3 io_out[5] *265:19 0
4 io_out[5] *266:19 0
*RES
1 *1436:X io_out[5] 27.2643 
*END

*D_NET *9 0.000722079
*CONN
*P io_out[6] O
*I *1437:X O *D sky130_fd_sc_hd__buf_4
*CAP
1 io_out[6] 0.000361039
2 *1437:X 0.000361039
3 io_out[6] *266:19 0
*RES
1 *1437:X io_out[6] 27.2643 
*END

*D_NET *10 0.000604002
*CONN
*P io_out[7] O
*I *1430:X O *D sky130_fd_sc_hd__buf_4
*CAP
1 io_out[7] 0.000302001
2 *1430:X 0.000302001
*RES
1 *1430:X io_out[7] 26.0321 
*END

*D_NET *11 0.000943418
*CONN
*P rst I
*I *1429:A I *D sky130_fd_sc_hd__clkbuf_2
*CAP
1 rst 0.000471709
2 *1429:A 0.000471709
3 *1429:A *238:11 0
*RES
1 rst *1429:A 31.0143 
*END

*D_NET *14 0.000356616
*CONN
*I *1363:D I *D sky130_fd_sc_hd__dfxtp_1
*I *1252:X O *D sky130_fd_sc_hd__a21bo_1
*CAP
1 *1363:D 0.000178308
2 *1252:X 0.000178308
3 *1363:D *1362:D 0
4 *1363:D *23:8 0
*RES
1 *1252:X *1363:D 41.1402 
*END

*D_NET *15 0.00243541
*CONN
*I *1364:D I *D sky130_fd_sc_hd__dfxtp_1
*I *1255:Y O *D sky130_fd_sc_hd__nand2_1
*CAP
1 *1364:D 0.000350593
2 *1255:Y 0.000867112
3 *15:11 0.0012177
4 *1364:D *196:42 0
5 *1364:D *196:94 0
6 *1364:D *196:103 0
7 *15:11 *1360:D 0
8 *15:11 *1362:D 0
9 *15:11 *196:42 0
*RES
1 *1255:Y *15:11 48.0143 
2 *15:11 *1364:D 16.6795 
*END

*D_NET *16 0.00219253
*CONN
*I *1365:D I *D sky130_fd_sc_hd__dfxtp_1
*I *1256:X O *D sky130_fd_sc_hd__o21ba_1
*CAP
1 *1365:D 2.75939e-05
2 *1256:X 0.00106867
3 *16:8 0.00109626
4 *1365:D *1365:CLK 0
5 *16:8 *1177:A 0
6 *16:8 *1256:A2 0
7 *16:8 *1256:B1_N 0
8 *16:8 *1365:CLK 0
9 *16:8 *196:103 0
10 *16:8 *196:112 0
11 *16:8 *262:8 0
12 *16:8 *266:14 0
*RES
1 *1256:X *16:8 45.6929 
2 *16:8 *1365:D 18.8759 
*END

*D_NET *17 0.000713727
*CONN
*I *1366:D I *D sky130_fd_sc_hd__dfxtp_1
*I *1257:Y O *D sky130_fd_sc_hd__o21ai_1
*CAP
1 *1366:D 0.000356863
2 *1257:Y 0.000356863
3 *1366:D *1257:A2 0
4 *1366:D *1409:D 0
5 *1366:D *65:11 0
6 *1366:D *65:13 0
7 *1366:D *65:65 0
8 *1366:D *68:10 0
9 *1366:D *264:8 0
*RES
1 *1257:Y *1366:D 45.3366 
*END

*D_NET *18 0.00115398
*CONN
*I *1367:D I *D sky130_fd_sc_hd__dfxtp_1
*I *1258:Y O *D sky130_fd_sc_hd__nand2_1
*CAP
1 *1367:D 0
2 *1258:Y 0.000576991
3 *18:11 0.000576991
4 *18:11 *1256:A1 0
5 *18:11 *196:45 0
6 *18:11 *196:47 0
7 *18:11 *201:8 0
8 *18:11 *262:8 0
*RES
1 *1258:Y *18:11 42.0902 
2 *18:11 *1367:D 9.3 
*END

*D_NET *19 0.00197616
*CONN
*I *1358:D I *D sky130_fd_sc_hd__dfxtp_1
*I *1259:X O *D sky130_fd_sc_hd__or2_1
*CAP
1 *1358:D 4.72733e-05
2 *1259:X 0.000940805
3 *19:8 0.000988079
4 *19:8 *1250:B 0
5 *19:8 *1257:B1 0
6 *19:8 *1410:D 0
7 *19:8 *196:45 0
8 *19:8 *196:47 0
9 *19:8 *196:51 0
10 *19:8 *196:128 0
11 *19:8 *196:139 0
12 *19:8 *201:8 0
13 *19:8 *261:12 0
*RES
1 *1259:X *19:8 42.4429 
2 *19:8 *1358:D 19.2866 
*END

*D_NET *20 0.00127955
*CONN
*I *1359:D I *D sky130_fd_sc_hd__dfxtp_4
*I *1260:Y O *D sky130_fd_sc_hd__nor2_1
*CAP
1 *1359:D 0
2 *1260:Y 0.000639775
3 *20:9 0.000639775
4 *20:9 *234:14 0
5 *20:9 *243:7 0
6 *20:9 *248:18 0
*RES
1 *1260:Y *20:9 40.9786 
2 *20:9 *1359:D 9.3 
*END

*D_NET *21 0.00138954
*CONN
*I *1360:D I *D sky130_fd_sc_hd__dfxtp_4
*I *1262:X O *D sky130_fd_sc_hd__o21a_1
*CAP
1 *1360:D 0.000694768
2 *1262:X 0.000694768
3 *1360:D *244:5 0
4 *15:11 *1360:D 0
*RES
1 *1262:X *1360:D 33.1 
*END

*D_NET *22 0.00100382
*CONN
*I *1361:D I *D sky130_fd_sc_hd__dfxtp_2
*I *1265:Y O *D sky130_fd_sc_hd__nor2_1
*CAP
1 *1361:D 0.000501911
2 *1265:Y 0.000501911
3 *1361:D *1188:A 0
4 *1361:D *227:22 0
5 *1361:D *245:5 0
*RES
1 *1265:Y *1361:D 47.4616 
*END

*D_NET *23 0.00179295
*CONN
*I *1362:D I *D sky130_fd_sc_hd__dfxtp_1
*I *1255:B I *D sky130_fd_sc_hd__nand2_1
*I *1254:Y O *D sky130_fd_sc_hd__o21bai_2
*CAP
1 *1362:D 0.000674746
2 *1255:B 2.56688e-05
3 *1254:Y 0.000196062
4 *23:8 0.000896477
5 *1255:B *1411:D 0
6 *23:8 *1254:A1 0
7 *23:8 *1255:A 0
8 *23:8 *1411:D 0
9 *23:8 *65:39 0
10 *23:8 *67:28 0
11 *1363:D *1362:D 0
12 *1363:D *23:8 0
13 *15:11 *1362:D 0
*RES
1 *1254:Y *23:8 23.2107 
2 *23:8 *1255:B 18.8357 
3 *23:8 *1362:D 35.8937 
*END

*D_NET *24 0.00390507
*CONN
*I *1368:D I *D sky130_fd_sc_hd__dfxtp_2
*I *1266:X O *D sky130_fd_sc_hd__a211o_1
*CAP
1 *1368:D 0.000817353
2 *1266:X 0.00113518
3 *24:10 0.00195253
4 *1368:D *1373:CLK 0
5 *1368:D *31:9 0
6 *1368:D *33:22 0
7 *1368:D *199:21 0
8 *24:10 *1240:C1 0
9 *24:10 *1266:A1 0
10 *24:10 *1284:A2 0
11 *24:10 *31:9 0
12 *24:10 *33:22 0
13 *24:10 *119:23 0
14 *24:10 *247:8 0
*RES
1 *1266:X *24:10 47.4875 
2 *24:10 *1368:D 38.6348 
*END

*D_NET *25 0.00158167
*CONN
*I *1369:D I *D sky130_fd_sc_hd__dfxtp_1
*I *1269:X O *D sky130_fd_sc_hd__o21a_1
*CAP
1 *1369:D 0
2 *1269:X 0.000790834
3 *25:9 0.000790834
4 *25:9 *1216:A2 0
5 *25:9 *1269:A1 0
6 *25:9 *1276:C 0
7 *25:9 *1282:A2 0
8 *25:9 *73:22 0
9 *25:9 *116:8 0
10 *25:9 *146:9 0
11 *25:9 *150:17 0
12 *25:9 *204:84 0
13 *25:9 *206:14 0
14 *25:9 *210:11 0
15 *25:9 *253:75 0
*RES
1 *1269:X *25:9 47.4473 
2 *25:9 *1369:D 9.3 
*END

*D_NET *26 0.00217291
*CONN
*I *1370:D I *D sky130_fd_sc_hd__dfxtp_4
*I *1272:X O *D sky130_fd_sc_hd__and3_1
*CAP
1 *1370:D 0.000360219
2 *1272:X 0.000726236
3 *26:10 0.00108645
4 *1370:D *204:8 0
5 *26:10 *1266:A2 0
6 *26:10 *1272:A 0
7 *26:10 *1279:B1 0
8 *26:10 *27:11 0
9 *26:10 *29:8 0
10 *26:10 *263:8 0
*RES
1 *1272:X *26:10 45.9786 
2 *26:10 *1370:D 16.8179 
*END

*D_NET *27 0.00347627
*CONN
*I *1371:D I *D sky130_fd_sc_hd__dfxtp_2
*I *1274:Y O *D sky130_fd_sc_hd__a21oi_1
*CAP
1 *1371:D 0
2 *1274:Y 0.000163425
3 *27:11 0.00157471
4 *27:7 0.00173814
5 *27:7 *1243:B1 0
6 *27:11 *1266:A2 0
7 *27:11 *1277:C 0
8 *27:11 *1278:A2 0