*SPEF "ieee 1481-1999"
*DESIGN "tt2_tholin_multiplexed_counter"
*DATE "11:11:11 Fri 11 11, 1111"
*VENDOR "OpenRCX"
*PROGRAM "Parallel Extraction"
*VERSION "1.0"
*DESIGN_FLOW "NAME_SCOPE LOCAL" "PIN_CAP NONE"
*DIVIDER /
*DELIMITER :
*BUS_DELIMITER []
*T_UNIT 1 NS
*C_UNIT 1 PF
*R_UNIT 1 OHM
*L_UNIT 1 HENRY

*NAME_MAP
*1 clk
*2 io_out[0]
*3 io_out[10]
*4 io_out[11]
*5 io_out[1]
*6 io_out[2]
*7 io_out[3]
*8 io_out[4]
*9 io_out[5]
*10 io_out[6]
*11 io_out[7]
*12 io_out[8]
*13 io_out[9]
*14 rst
*17 CIRCUIT_1111\.MEMORY_2\.d
*18 CIRCUIT_1111\.MEMORY_2\.s_currentState
*19 CIRCUIT_1111\.MEMORY_3\.d
*20 CIRCUIT_1111\.MEMORY_3\.s_currentState
*21 CIRCUIT_1111\.MEMORY_4\.d
*22 CIRCUIT_1111\.MEMORY_6\.d
*23 CIRCUIT_1111\.MEMORY_6\.s_currentState
*24 CIRCUIT_1111\.MEMORY_7\.d
*25 CIRCUIT_1111\.MEMORY_7\.s_currentState
*26 CIRCUIT_1111\.custom_counter_10_1\.MEMORY_1\.d
*27 CIRCUIT_1111\.custom_counter_10_1\.MEMORY_1\.s_currentState
*28 CIRCUIT_1111\.custom_counter_10_1\.MEMORY_10\.clock
*29 CIRCUIT_1111\.custom_counter_10_1\.MEMORY_10\.d
*30 CIRCUIT_1111\.custom_counter_10_1\.MEMORY_10\.s_currentState
*31 CIRCUIT_1111\.custom_counter_10_1\.MEMORY_2\.d
*32 CIRCUIT_1111\.custom_counter_10_1\.MEMORY_2\.s_currentState
*33 CIRCUIT_1111\.custom_counter_10_1\.MEMORY_3\.d
*34 CIRCUIT_1111\.custom_counter_10_1\.MEMORY_3\.s_currentState
*35 CIRCUIT_1111\.custom_counter_10_1\.MEMORY_4\.d
*36 CIRCUIT_1111\.custom_counter_10_1\.MEMORY_4\.s_currentState
*37 CIRCUIT_1111\.custom_counter_10_1\.MEMORY_5\.d
*38 CIRCUIT_1111\.custom_counter_10_1\.MEMORY_5\.s_currentState
*39 CIRCUIT_1111\.custom_counter_10_1\.MEMORY_6\.d
*40 CIRCUIT_1111\.custom_counter_10_1\.MEMORY_6\.s_currentState
*41 CIRCUIT_1111\.custom_counter_10_1\.MEMORY_7\.clock
*42 CIRCUIT_1111\.custom_counter_10_1\.MEMORY_7\.d
*43 CIRCUIT_1111\.custom_counter_10_1\.MEMORY_7\.s_currentState
*44 CIRCUIT_1111\.custom_counter_10_1\.MEMORY_8\.s_currentState
*45 CIRCUIT_1111\.custom_counter_10_1\.MEMORY_9\.s_currentState
*46 CIRCUIT_1111\.full_counter_1\.ARITH_1\.aEqualsB
*47 CIRCUIT_1111\.full_counter_1\.ARITH_2\.aEqualsB
*48 CIRCUIT_1111\.full_counter_1\.MEMORY_3\.s_currentState
*49 CIRCUIT_1111\.full_counter_1\.MEMORY_6\.s_currentState
*50 CIRCUIT_1111\.full_counter_1\.custom_counter_4_1\.MEMORY_1\.d
*51 CIRCUIT_1111\.full_counter_1\.custom_counter_4_1\.MEMORY_1\.s_currentState
*52 CIRCUIT_1111\.full_counter_1\.custom_counter_4_1\.MEMORY_2\.d
*53 CIRCUIT_1111\.full_counter_1\.custom_counter_4_1\.MEMORY_2\.s_currentState
*54 CIRCUIT_1111\.full_counter_1\.custom_counter_4_1\.MEMORY_3\.d
*55 CIRCUIT_1111\.full_counter_1\.custom_counter_4_1\.MEMORY_3\.s_currentState
*56 CIRCUIT_1111\.full_counter_1\.custom_counter_4_1\.MEMORY_4\.d
*57 CIRCUIT_1111\.full_counter_1\.custom_counter_4_1\.MEMORY_4\.s_currentState
*58 CIRCUIT_1111\.full_counter_1\.custom_counter_4_2\.MEMORY_1\.d
*59 CIRCUIT_1111\.full_counter_1\.custom_counter_4_2\.MEMORY_1\.s_currentState
*60 CIRCUIT_1111\.full_counter_1\.custom_counter_4_2\.MEMORY_2\.d
*61 CIRCUIT_1111\.full_counter_1\.custom_counter_4_2\.MEMORY_2\.s_currentState
*62 CIRCUIT_1111\.full_counter_1\.custom_counter_4_2\.MEMORY_3\.d
*63 CIRCUIT_1111\.full_counter_1\.custom_counter_4_2\.MEMORY_3\.s_currentState
*64 CIRCUIT_1111\.full_counter_1\.custom_counter_4_2\.MEMORY_4\.d
*65 CIRCUIT_1111\.full_counter_1\.custom_counter_4_2\.MEMORY_4\.s_currentState
*66 CIRCUIT_1111\.full_counter_1\.seconds_counter_1\.ARITH_1\.aEqualsB
*67 CIRCUIT_1111\.full_counter_1\.seconds_counter_1\.ARITH_4\.aEqualsB
*68 CIRCUIT_1111\.full_counter_1\.seconds_counter_1\.MEMORY_5\.s_currentState
*69 CIRCUIT_1111\.full_counter_1\.seconds_counter_1\.MEMORY_6\.s_currentState
*70 CIRCUIT_1111\.full_counter_1\.seconds_counter_1\.custom_counter_4_1\.MEMORY_1\.d
*71 CIRCUIT_1111\.full_counter_1\.seconds_counter_1\.custom_counter_4_1\.MEMORY_1\.s_currentState
*72 CIRCUIT_1111\.full_counter_1\.seconds_counter_1\.custom_counter_4_1\.MEMORY_2\.d
*73 CIRCUIT_1111\.full_counter_1\.seconds_counter_1\.custom_counter_4_1\.MEMORY_2\.s_currentState
*74 CIRCUIT_1111\.full_counter_1\.seconds_counter_1\.custom_counter_4_1\.MEMORY_3\.d
*75 CIRCUIT_1111\.full_counter_1\.seconds_counter_1\.custom_counter_4_1\.MEMORY_3\.s_currentState
*76 CIRCUIT_1111\.full_counter_1\.seconds_counter_1\.custom_counter_4_1\.MEMORY_4\.d
*77 CIRCUIT_1111\.full_counter_1\.seconds_counter_1\.custom_counter_4_1\.MEMORY_4\.s_currentState
*78 CIRCUIT_1111\.full_counter_1\.seconds_counter_1\.custom_counter_4_2\.MEMORY_1\.d
*79 CIRCUIT_1111\.full_counter_1\.seconds_counter_1\.custom_counter_4_2\.MEMORY_1\.s_currentState
*80 CIRCUIT_1111\.full_counter_1\.seconds_counter_1\.custom_counter_4_2\.MEMORY_2\.d
*81 CIRCUIT_1111\.full_counter_1\.seconds_counter_1\.custom_counter_4_2\.MEMORY_2\.s_currentState
*82 CIRCUIT_1111\.full_counter_1\.seconds_counter_1\.custom_counter_4_2\.MEMORY_3\.d
*83 CIRCUIT_1111\.full_counter_1\.seconds_counter_1\.custom_counter_4_2\.MEMORY_3\.s_currentState
*84 _007_
*85 _009_
*86 _011_
*87 _013_
*88 _015_
*89 _017_
*90 _019_
*91 _021_
*92 _023_
*93 _026_
*94 _027_
*95 _028_
*96 _029_
*97 _030_
*98 _031_
*99 _032_
*100 _033_
*101 _034_
*102 _035_
*103 _036_
*104 _037_
*105 _038_
*106 _041_
*107 _042_
*108 _043_
*109 _044_
*110 _045_
*111 _046_
*112 _047_
*113 _048_
*114 _049_
*115 _050_
*116 _051_
*117 _052_
*118 _053_
*119 _054_
*120 _056_
*121 _058_
*122 _060_
*123 _062_
*124 _064_
*125 _065_
*126 _066_
*127 _067_
*128 _068_
*129 _069_
*130 _070_
*131 _071_
*132 _072_
*133 _073_
*134 _074_
*135 _075_
*136 _076_
*137 _077_
*138 _078_
*139 _079_
*140 _080_
*141 _081_
*142 _082_
*143 _083_
*144 _084_
*145 _085_
*146 _086_
*147 _087_
*148 _088_
*149 _089_
*150 _090_
*151 _091_
*152 _092_
*153 _093_
*154 _094_
*155 clknet_0__068_
*156 clknet_0_clk
*157 clknet_1_0__leaf_clk
*158 clknet_1_1__leaf_clk
*159 clknet_2_0__leaf__068_
*160 clknet_2_1__leaf__068_
*161 clknet_2_2__leaf__068_
*162 clknet_2_3__leaf__068_
*163 net1
*164 net10
*165 net11
*166 net12
*167 net13
*168 net14
*169 net15
*170 net16
*171 net17
*172 net18
*173 net19
*174 net2
*175 net20
*176 net21
*177 net22
*178 net23
*179 net24
*180 net25
*181 net26
*182 net27
*183 net28
*184 net29
*185 net3
*186 net30
*187 net31
*188 net32
*189 net33
*190 net34
*191 net35
*192 net36
*193 net37
*194 net4
*195 net5
*196 net6
*197 net7
*198 net8
*199 net9
*200 prev_sel
*201 FILLER_0_100
*202 FILLER_0_11
*203 FILLER_0_113
*204 FILLER_0_121
*205 FILLER_0_125
*206 FILLER_0_132
*207 FILLER_0_141
*208 FILLER_0_154
*209 FILLER_0_164
*210 FILLER_0_20
*211 FILLER_0_29
*212 FILLER_0_3
*213 FILLER_0_37
*214 FILLER_0_45
*215 FILLER_0_52
*216 FILLER_0_57
*217 FILLER_0_61
*218 FILLER_0_68
*219 FILLER_0_82
*220 FILLER_0_85
*221 FILLER_0_93
*222 FILLER_10_100
*223 FILLER_10_121
*224 FILLER_10_133
*225 FILLER_10_138
*226 FILLER_10_141
*227 FILLER_10_15
*228 FILLER_10_166
*229 FILLER_10_27
*230 FILLER_10_29
*231 FILLER_10_3
*232 FILLER_10_34
*233 FILLER_10_42
*234 FILLER_10_65
*235 FILLER_10_71
*236 FILLER_10_75
*237 FILLER_10_82
*238 FILLER_10_85
*239 FILLER_10_92
*240 FILLER_11_105
*241 FILLER_11_11
*242 FILLER_11_111
*243 FILLER_11_113
*244 FILLER_11_148
*245 FILLER_11_155
*246 FILLER_11_167
*247 FILLER_11_17
*248 FILLER_11_29
*249 FILLER_11_3
*250 FILLER_11_41
*251 FILLER_11_53
*252 FILLER_11_57
*253 FILLER_11_76
*254 FILLER_11_84
*255 FILLER_12_109
*256 FILLER_12_121
*257 FILLER_12_133
*258 FILLER_12_139
*259 FILLER_12_141
*260 FILLER_12_146
*261 FILLER_12_158
*262 FILLER_12_166
*263 FILLER_12_26
*264 FILLER_12_29
*265 FILLER_12_3
*266 FILLER_12_37
*267 FILLER_12_56
*268 FILLER_12_77
*269 FILLER_12_83
*270 FILLER_12_85
*271 FILLER_13_10
*272 FILLER_13_102
*273 FILLER_13_110
*274 FILLER_13_113
*275 FILLER_13_119
*276 FILLER_13_126
*277 FILLER_13_138
*278 FILLER_13_150
*279 FILLER_13_154
*280 FILLER_13_158
*281 FILLER_13_165
*282 FILLER_13_3
*283 FILLER_13_35
*284 FILLER_13_39
*285 FILLER_13_43
*286 FILLER_13_54
*287 FILLER_13_57
*288 FILLER_13_67
*289 FILLER_13_73
*290 FILLER_13_77
*291 FILLER_14_11
*292 FILLER_14_126
*293 FILLER_14_130
*294 FILLER_14_134
*295 FILLER_14_141
*296 FILLER_14_166
*297 FILLER_14_17
*298 FILLER_14_26
*299 FILLER_14_29
*300 FILLER_14_3
*301 FILLER_14_36
*302 FILLER_14_44
*303 FILLER_14_65
*304 FILLER_14_77
*305 FILLER_14_82
*306 FILLER_14_85
*307 FILLER_14_92
*308 FILLER_14_99
*309 FILLER_15_110
*310 FILLER_15_113
*311 FILLER_15_144
*312 FILLER_15_15
*313 FILLER_15_152
*314 FILLER_15_156
*315 FILLER_15_163
*316 FILLER_15_167
*317 FILLER_15_27
*318 FILLER_15_3
*319 FILLER_15_39
*320 FILLER_15_51
*321 FILLER_15_55
*322 FILLER_15_57
*323 FILLER_15_62
*324 FILLER_15_86
*325 FILLER_16_117
*326 FILLER_16_129
*327 FILLER_16_133
*328 FILLER_16_137
*329 FILLER_16_141
*330 FILLER_16_15
*331 FILLER_16_166
*332 FILLER_16_27
*333 FILLER_16_29
*334 FILLER_16_3
*335 FILLER_16_41
*336 FILLER_16_53
*337 FILLER_16_77
*338 FILLER_16_83
*339 FILLER_16_85
*340 FILLER_16_93
*341 FILLER_17_101
*342 FILLER_17_107
*343 FILLER_17_11
*344 FILLER_17_111
*345 FILLER_17_113
*346 FILLER_17_118
*347 FILLER_17_125
*348 FILLER_17_137
*349 FILLER_17_152
*350 FILLER_17_16
*351 FILLER_17_160
*352 FILLER_17_165
*353 FILLER_17_25
*354 FILLER_17_3
*355 FILLER_17_37
*356 FILLER_17_49
*357 FILLER_17_54
*358 FILLER_17_57
*359 FILLER_17_80
*360 FILLER_17_89
*361 FILLER_18_109
*362 FILLER_18_121
*363 FILLER_18_133
*364 FILLER_18_139
*365 FILLER_18_141
*366 FILLER_18_153
*367 FILLER_18_165
*368 FILLER_18_26
*369 FILLER_18_29
*370 FILLER_18_3
*371 FILLER_18_37
*372 FILLER_18_49
*373 FILLER_18_53
*374 FILLER_18_57
*375 FILLER_18_64
*376 FILLER_18_73
*377 FILLER_18_81
*378 FILLER_18_85
*379 FILLER_18_97
*380 FILLER_19_102
*381 FILLER_19_110
*382 FILLER_19_113
*383 FILLER_19_118
*384 FILLER_19_13
*385 FILLER_19_130
*386 FILLER_19_142
*387 FILLER_19_146
*388 FILLER_19_150
*389 FILLER_19_157
*390 FILLER_19_165
*391 FILLER_19_20
*392 FILLER_19_3
*393 FILLER_19_45
*394 FILLER_19_53
*395 FILLER_19_57
*396 FILLER_19_63
*397 FILLER_19_71
*398 FILLER_19_78
*399 FILLER_19_9
*400 FILLER_19_90
*401 FILLER_1_103
*402 FILLER_1_11
*403 FILLER_1_110
*404 FILLER_1_113
*405 FILLER_1_131
*406 FILLER_1_144
*407 FILLER_1_157
*408 FILLER_1_165
*409 FILLER_1_23
*410 FILLER_1_3
*411 FILLER_1_30
*412 FILLER_1_39
*413 FILLER_1_49
*414 FILLER_1_55
*415 FILLER_1_57
*416 FILLER_1_62
*417 FILLER_1_74
*418 FILLER_1_86
*419 FILLER_1_91
*420 FILLER_20_11
*421 FILLER_20_118
*422 FILLER_20_130
*423 FILLER_20_138
*424 FILLER_20_141
*425 FILLER_20_166
*426 FILLER_20_17
*427 FILLER_20_25
*428 FILLER_20_29
*429 FILLER_20_3
*430 FILLER_20_36
*431 FILLER_20_48
*432 FILLER_20_59
*433 FILLER_20_82
*434 FILLER_20_85
*435 FILLER_20_93
*436 FILLER_21_102
*437 FILLER_21_11
*438 FILLER_21_110
*439 FILLER_21_113
*440 FILLER_21_119
*441 FILLER_21_126
*442 FILLER_21_153
*443 FILLER_21_160
*444 FILLER_21_3
*445 FILLER_21_33
*446 FILLER_21_45
*447 FILLER_21_54
*448 FILLER_21_57
*449 FILLER_21_64
*450 FILLER_21_70
*451 FILLER_21_92
*452 FILLER_21_98
*453 FILLER_22_122
*454 FILLER_22_130
*455 FILLER_22_135
*456 FILLER_22_139
*457 FILLER_22_141
*458 FILLER_22_15
*459 FILLER_22_166
*460 FILLER_22_19
*461 FILLER_22_27
*462 FILLER_22_29
*463 FILLER_22_3
*464 FILLER_22_36
*465 FILLER_22_48
*466 FILLER_22_70
*467 FILLER_22_82
*468 FILLER_22_85
*469 FILLER_22_92
*470 FILLER_22_98
*471 FILLER_23_100
*472 FILLER_23_104
*473 FILLER_23_113
*474 FILLER_23_118
*475 FILLER_23_125
*476 FILLER_23_133
*477 FILLER_23_139
*478 FILLER_23_146
*479 FILLER_23_15
*480 FILLER_23_153
*481 FILLER_23_160
*482 FILLER_23_23
*483 FILLER_23_3
*484 FILLER_23_42
*485 FILLER_23_54
*486 FILLER_23_57
*487 FILLER_23_62
*488 FILLER_23_74
*489 FILLER_23_86
*490 FILLER_23_90
*491 FILLER_23_94
*492 FILLER_24_103
*493 FILLER_24_107
*494 FILLER_24_111
*495 FILLER_24_113
*496 FILLER_24_125
*497 FILLER_24_137
*498 FILLER_24_141
*499 FILLER_24_147
*500 FILLER_24_15
*501 FILLER_24_154
*502 FILLER_24_166
*503 FILLER_24_27
*504 FILLER_24_29
*505 FILLER_24_3
*506 FILLER_24_34
*507 FILLER_24_46
*508 FILLER_24_54
*509 FILLER_24_57
*510 FILLER_24_69
*511 FILLER_24_81
*512 FILLER_24_85
*513 FILLER_24_97
*514 FILLER_2_104
*515 FILLER_2_124
*516 FILLER_2_137
*517 FILLER_2_141
*518 FILLER_2_159
*519 FILLER_2_16
*520 FILLER_2_166
*521 FILLER_2_26
*522 FILLER_2_29
*523 FILLER_2_3
*524 FILLER_2_44
*525 FILLER_2_48
*526 FILLER_2_57
*527 FILLER_2_67
*528 FILLER_2_79
*529 FILLER_2_83
*530 FILLER_2_85
*531 FILLER_3_106
*532 FILLER_3_110
*533 FILLER_3_113
*534 FILLER_3_123
*535 FILLER_3_135
*536 FILLER_3_15
*537 FILLER_3_155
*538 FILLER_3_165
*539 FILLER_3_22
*540 FILLER_3_3
*541 FILLER_3_30
*542 FILLER_3_40
*543 FILLER_3_50
*544 FILLER_3_57
*545 FILLER_3_62
*546 FILLER_3_70
*547 FILLER_3_94
*548 FILLER_4_104
*549 FILLER_4_112
*550 FILLER_4_120
*551 FILLER_4_132
*552 FILLER_4_138
*553 FILLER_4_141
*554 FILLER_4_149
*555 FILLER_4_15
*556 FILLER_4_157
*557 FILLER_4_166
*558 FILLER_4_27
*559 FILLER_4_29
*560 FILLER_4_3
*561 FILLER_4_42
*562 FILLER_4_50
*563 FILLER_4_58
*564 FILLER_4_63
*565 FILLER_4_70
*566 FILLER_4_81
*567 FILLER_4_85
*568 FILLER_4_92
*569 FILLER_5_110
*570 FILLER_5_113
*571 FILLER_5_125
*572 FILLER_5_137
*573 FILLER_5_149
*574 FILLER_5_161
*575 FILLER_5_167
*576 FILLER_5_3
*577 FILLER_5_31
*578 FILLER_5_39
*579 FILLER_5_43
*580 FILLER_5_50
*581 FILLER_5_57
*582 FILLER_5_69
*583 FILLER_5_7
*584 FILLER_5_73
*585 FILLER_5_98
*586 FILLER_6_104
*587 FILLER_6_11
*588 FILLER_6_116
*589 FILLER_6_128
*590 FILLER_6_141
*591 FILLER_6_148
*592 FILLER_6_16
*593 FILLER_6_160
*594 FILLER_6_25
*595 FILLER_6_29
*596 FILLER_6_3
*597 FILLER_6_41
*598 FILLER_6_53
*599 FILLER_6_65
*600 FILLER_6_77
*601 FILLER_6_82
*602 FILLER_6_85
*603 FILLER_6_92
*604 FILLER_7_105
*605 FILLER_7_111
*606 FILLER_7_113
*607 FILLER_7_118
*608 FILLER_7_125
*609 FILLER_7_129
*610 FILLER_7_146
*611 FILLER_7_155
*612 FILLER_7_162
*613 FILLER_7_3
*614 FILLER_7_33
*615 FILLER_7_45
*616 FILLER_7_53
*617 FILLER_7_57
*618 FILLER_7_68
*619 FILLER_7_72
*620 FILLER_7_8
*621 FILLER_7_93
*622 FILLER_8_100
*623 FILLER_8_104
*624 FILLER_8_11
*625 FILLER_8_126
*626 FILLER_8_130
*627 FILLER_8_134
*628 FILLER_8_141
*629 FILLER_8_164
*630 FILLER_8_17
*631 FILLER_8_26
*632 FILLER_8_29
*633 FILLER_8_3
*634 FILLER_8_37
*635 FILLER_8_56
*636 FILLER_8_68
*637 FILLER_8_74
*638 FILLER_8_78
*639 FILLER_8_85
*640 FILLER_8_93
*641 FILLER_9_107
*642 FILLER_9_111
*643 FILLER_9_113
*644 FILLER_9_118
*645 FILLER_9_12
*646 FILLER_9_130
*647 FILLER_9_145
*648 FILLER_9_156
*649 FILLER_9_163
*650 FILLER_9_167
*651 FILLER_9_23
*652 FILLER_9_3
*653 FILLER_9_46
*654 FILLER_9_50
*655 FILLER_9_54
*656 FILLER_9_57
*657 FILLER_9_82
*658 PHY_0
*659 PHY_1
*660 PHY_10
*661 PHY_11
*662 PHY_12
*663 PHY_13
*664 PHY_14
*665 PHY_15
*666 PHY_16
*667 PHY_17
*668 PHY_18
*669 PHY_19
*670 PHY_2
*671 PHY_20
*672 PHY_21
*673 PHY_22
*674 PHY_23
*675 PHY_24
*676 PHY_25
*677 PHY_26
*678 PHY_27
*679 PHY_28
*680 PHY_29
*681 PHY_3
*682 PHY_30
*683 PHY_31
*684 PHY_32
*685 PHY_33
*686 PHY_34
*687 PHY_35
*688 PHY_36
*689 PHY_37
*690 PHY_38
*691 PHY_39
*692 PHY_4
*693 PHY_40
*694 PHY_41
*695 PHY_42
*696 PHY_43
*697 PHY_44
*698 PHY_45
*699 PHY_46
*700 PHY_47
*701 PHY_48
*702 PHY_49
*703 PHY_5
*704 PHY_6
*705 PHY_7
*706 PHY_8
*707 PHY_9
*708 TAP_100
*709 TAP_101
*710 TAP_102
*711 TAP_103
*712 TAP_104
*713 TAP_105
*714 TAP_106
*715 TAP_107
*716 TAP_108
*717 TAP_109
*718 TAP_110
*719 TAP_111
*720 TAP_112
*721 TAP_113
*722 TAP_114
*723 TAP_115
*724 TAP_116
*725 TAP_50
*726 TAP_51
*727 TAP_52
*728 TAP_53
*729 TAP_54
*730 TAP_55
*731 TAP_56
*732 TAP_57
*733 TAP_58
*734 TAP_59
*735 TAP_60
*736 TAP_61
*737 TAP_62
*738 TAP_63
*739 TAP_64
*740 TAP_65
*741 TAP_66
*742 TAP_67
*743 TAP_68
*744 TAP_69
*745 TAP_70
*746 TAP_71
*747 TAP_72
*748 TAP_73
*749 TAP_74
*750 TAP_75
*751 TAP_76
*752 TAP_77
*753 TAP_78
*754 TAP_79
*755 TAP_80
*756 TAP_81
*757 TAP_82
*758 TAP_83
*759 TAP_84
*760 TAP_85
*761 TAP_86
*762 TAP_87
*763 TAP_88
*764 TAP_89
*765 TAP_90
*766 TAP_91
*767 TAP_92
*768 TAP_93
*769 TAP_94
*770 TAP_95
*771 TAP_96
*772 TAP_97
*773 TAP_98
*774 TAP_99
*775 _095_
*776 _096_
*777 _097_
*778 _098_
*779 _099_
*780 _100_
*781 _101_
*782 _102_
*783 _103_
*784 _104_
*785 _105_
*786 _106_
*787 _107_
*788 _108_
*789 _109_
*790 _110_
*791 _111_
*792 _112_
*793 _113_
*794 _114_
*795 _115_
*796 _116_
*797 _117_
*798 _118_
*799 _119_
*800 _120_
*801 _121_
*802 _122_
*803 _123_
*804 _124_
*805 _125__1
*806 _126_
*807 _127__10
*808 _128_
*809 _129_
*810 _130_
*811 _131_
*812 _132_
*813 _133_
*814 _134_
*815 _135_
*816 _136_
*817 _137_
*818 _138_
*819 _139_
*820 _140_
*821 _141_
*822 _142_
*823 _143_
*824 _144_
*825 _145_
*826 _146_
*827 _147_
*828 _148_
*829 _149_
*830 _150_
*831 _151_
*832 _152_
*833 _153_
*834 _154_
*835 _155_
*836 _156_
*837 _157_
*838 _158_
*839 _159_
*840 _160_
*841 _161_
*842 _162_
*843 _163_
*844 _164_
*845 _165_
*846 _166_
*847 _167_
*848 _168_
*849 _169_
*850 _170_
*851 _171_
*852 _172_
*853 _173__11
*854 _174__12
*855 _175__13
*856 _176_
*857 _177_
*858 _178_
*859 _179_
*860 _180_
*861 _181_
*862 _182_
*863 _183_
*864 _184__14
*865 _185__15
*866 _186__16
*867 _187__17
*868 _188__18
*869 _189__19
*870 _190__20
*871 _191__21
*872 _192__22
*873 _193__2
*874 _194__3
*875 _195__4
*876 _196__5
*877 _197__23
*878 _198_
*879 _199_
*880 _200_
*881 _201_
*882 _202_
*883 _203_
*884 _204_
*885 _205_
*886 _206_
*887 _207__6
*888 _208__7
*889 _209_
*890 _210_
*891 _211_
*892 _212_
*893 _213_
*894 _214_
*895 _215_
*896 _216__8
*897 _217__9
*898 _218_
*899 _219_
*900 _220_
*901 _221_
*902 _222_
*903 _223_
*904 _224_
*905 _225_
*906 _226_
*907 _227_
*908 _228_
*909 _229_
*910 _230__24
*911 _231_
*912 _232_
*913 _233_
*914 _234_
*915 _235_
*916 _236_
*917 _237_
*918 _238_
*919 _239_
*920 _240_
*921 _241_
*922 _242_
*923 _243_
*924 _244_
*925 _245_
*926 _246_
*927 _247_
*928 _248_
*929 _249_
*930 _250_
*931 _251_
*932 _252_
*933 _253_
*934 _254_
*935 _255_
*936 _256_
*937 _257_
*938 _258_
*939 _259_
*940 _260_
*941 _261_
*942 _262_
*943 _263_
*944 _264_
*945 _265_
*946 _266_
*947 _267_
*948 _268_
*949 _269_
*950 clkbuf_0__068_
*951 clkbuf_0_clk
*952 clkbuf_1_0__f_clk
*953 clkbuf_1_1__f_clk
*954 clkbuf_2_0__f__068_
*955 clkbuf_2_1__f__068_
*956 clkbuf_2_2__f__068_
*957 clkbuf_2_3__f__068_
*958 input1
*959 output10
*960 output11
*961 output12
*962 output13
*963 output2
*964 output3
*965 output4
*966 output5
*967 output6
*968 output7
*969 output8
*970 output9

*PORTS
clk I
io_out[0] O
io_out[10] O
io_out[11] O
io_out[1] O
io_out[2] O
io_out[3] O
io_out[4] O
io_out[5] O
io_out[6] O
io_out[7] O
io_out[8] O
io_out[9] O
rst I

*D_NET *1 0.00499562
*CONN
*P clk I
*I *951:A I *D sky130_fd_sc_hd__clkbuf_16
*CAP
1 clk 0.00130702
2 *951:A 0.00119079
3 *1:10 0.00249781
4 *951:A *776:A 0
5 *951:A *778:A 0
6 *951:A *810:A 0
7 *951:A *829:B 0
8 *951:A *831:C_N 0
9 *951:A *934:RESET_B 0
10 *951:A *945:D 0
11 *951:A *68:6 0
12 *951:A *68:30 0
13 *951:A *71:20 0
14 *951:A *73:8 0
15 *951:A *77:13 0
16 *1:10 *811:B 0
17 *1:10 *935:CLK 0
18 *1:10 *935:D 0
19 *1:10 *68:34 0
*RES
1 clk *1:10 47.7321 
2 *1:10 *951:A 48.4429 
*END

*D_NET *2 0.00117285
*CONN
*P io_out[0] O
*I *963:X O *D sky130_fd_sc_hd__buf_4
*CAP
1 io_out[0] 3.03417e-05
2 *963:X 0.000556084
3 *2:11 0.000586426
4 *2:11 io_out[1] 0
5 *2:11 *148:10 0
*RES
1 *963:X *2:11 49.7643 
2 *2:11 io_out[0] 0.821429 
*END

*D_NET *3 0.0013211
*CONN
*P io_out[10] O
*I *964:X O *D sky130_fd_sc_hd__buf_4
*CAP
1 io_out[10] 0.000660548
2 *964:X 0.000660548
3 io_out[10] *813:A1 0
4 io_out[10] *815:A1 0
5 io_out[10] *875:A 0
6 io_out[10] *962:A 0
7 io_out[10] *964:A 0
8 io_out[10] *13:9 0
9 io_out[10] *185:8 0
*RES
1 *964:X io_out[10] 35.1036 
*END

*D_NET *4 0.00170419
*CONN
*P io_out[11] O
*I *965:X O *D sky130_fd_sc_hd__buf_4
*CAP
1 io_out[11] 0.000852096
2 *965:X 0.000852096
*RES
1 *965:X io_out[11] 39.4429 
*END

*D_NET *5 0.00068272
*CONN
*P io_out[1] O
*I *966:X O *D sky130_fd_sc_hd__buf_4
*CAP
1 io_out[1] 0.00034136
2 *966:X 0.00034136
3 *2:11 io_out[1] 0
*RES
1 *966:X io_out[1] 26.8536 
*END

*D_NET *6 0.000803195
*CONN
*P io_out[2] O
*I *967:X O *D sky130_fd_sc_hd__buf_4
*CAP
1 io_out[2] 0.000401597
2 *967:X 0.000401597
*RES
1 *967:X io_out[2] 29.3893 
*END

*D_NET *7 0.000713026
*CONN
*P io_out[3] O
*I *968:X O *D sky130_fd_sc_hd__buf_4
*CAP
1 io_out[3] 0.000356513
2 *968:X 0.000356513
*RES
1 *968:X io_out[3] 27.5143 
*END

*D_NET *8 0.000720638
*CONN
*P io_out[4] O
*I *969:X O *D sky130_fd_sc_hd__buf_4
*CAP
1 io_out[4] 0.000360319
2 *969:X 0.000360319
*RES
1 *969:X io_out[4] 27.5143 
*END

*D_NET *9 0.000649943
*CONN
*P io_out[5] O
*I *970:X O *D sky130_fd_sc_hd__buf_4
*CAP
1 io_out[5] 0.000324972
2 *970:X 0.000324972
*RES
1 *970:X io_out[5] 26.6929 
*END

*D_NET *10 0.000722079
*CONN
*P io_out[6] O
*I *959:X O *D sky130_fd_sc_hd__buf_4
*CAP
1 io_out[6] 0.000361039
2 *959:X 0.000361039
*RES
1 *959:X io_out[6] 27.2643 
*END

*D_NET *11 0.000879308
*CONN
*P io_out[7] O
*I *960:X O *D sky130_fd_sc_hd__buf_4
*CAP
1 io_out[7] 0.000439654
2 *960:X 0.000439654
*RES
1 *960:X io_out[7] 28.9071 
*END

*D_NET *12 0.00068272
*CONN
*P io_out[8] O
*I *961:X O *D sky130_fd_sc_hd__buf_4
*CAP
1 io_out[8] 0.00034136
2 *961:X 0.00034136
*RES
1 *961:X io_out[8] 26.8536 
*END

*D_NET *13 0.00136142
*CONN
*P io_out[9] O
*I *962:X O *D sky130_fd_sc_hd__buf_4
*CAP
1 io_out[9] 3.15416e-05
2 *962:X 0.000649168
3 *13:9 0.000680709
4 io_out[10] *13:9 0
*RES
1 *962:X *13:9 42.1393 
2 *13:9 io_out[9] 9.82143 
*END

*D_NET *14 0.00109743
*CONN
*P rst I
*I *958:A I *D sky130_fd_sc_hd__clkbuf_2
*CAP
1 rst 0.000548713
2 *958:A 0.000548713
*RES
1 rst *958:A 49.6036 
*END

*D_NET *17 0.000452947
*CONN
*I *949:D I *D sky130_fd_sc_hd__dfrtp_4
*I *804:Y O *D sky130_fd_sc_hd__inv_2
*CAP
1 *949:D 0.000226474
2 *804:Y 0.000226474
*RES
1 *804:Y *949:D 41.6536 
*END

*D_NET *18 0.000857369
*CONN
*I *909:A I *D sky130_fd_sc_hd__inv_2
*I *804:A I *D sky130_fd_sc_hd__inv_2
*I *949:Q O *D sky130_fd_sc_hd__dfrtp_4
*CAP
1 *909:A 0.000123424
2 *804:A 0.00030526
3 *949:Q 0
4 *18:4 0.000428684
5 *804:A *163:14 0
*RES
1 *949:Q *18:4 9.3 
2 *18:4 *804:A 34.2107 
3 *18:4 *909:A 11.9071 
*END

*D_NET *19 0.000154191
*CONN
*I *948:D I *D sky130_fd_sc_hd__dfrtp_4
*I *803:Y O *D sky130_fd_sc_hd__inv_2
*CAP
1 *948:D 7.70954e-05
2 *803:Y 7.70954e-05
3 *948:D *161:48 0
*RES
1 *803:Y *948:D 38.475 
*END

*D_NET *20 0.000895374
*CONN
*I *803:A I *D sky130_fd_sc_hd__inv_2
*I *908:A I *D sky130_fd_sc_hd__inv_2
*I *948:Q O *D sky130_fd_sc_hd__dfrtp_4
*CAP
1 *803:A 0.0003384
2 *908:A 2.0535e-05
3 *948:Q 8.87521e-05
4 *20:9 0.000447687
5 *20:9 *163:14 0
*RES
1 *948:Q *20:9 29.4786 
2 *20:9 *908:A 9.72857 
3 *20:9 *803:A 16.425 
*END

*D_NET *21 0.0004633
*CONN
*I *947:D I *D sky130_fd_sc_hd__dfrtp_2
*I *812:A I *D sky130_fd_sc_hd__nor2_2
*I *792:Y O *D sky130_fd_sc_hd__inv_2
*CAP
1 *947:D 7.22887e-05
2 *812:A 8.4707e-05
3 *792:Y 7.46543e-05
4 *21:6 0.00023165
5 *812:A *812:B 0
6 *812:A *129:8 0
7 *947:D *163:14 0
8 *947:D *165:11 0
9 *21:6 *129:8 0
10 *21:6 *163:14 0
*RES
1 *792:Y *21:6 20.2464 
2 *21:6 *812:A 20.0679 
3 *21:6 *947:D 20.2464 
*END

*D_NET *22 0.000332805
*CONN
*I *946:D I *D sky130_fd_sc_hd__dfrtp_2
*I *775:Y O *D sky130_fd_sc_hd__inv_2
*CAP
1 *946:D 0.000166403
2 *775:Y 0.000166403
3 *946:D *161:8 0
*RES
1 *775:Y *946:D 40.2786 
*END

*D_NET *23 0.00613665
*CONN
*I *775:A I *D sky130_fd_sc_hd__inv_2
*I *906:A I *D sky130_fd_sc_hd__inv_2
*I *831:A I *D sky130_fd_sc_hd__or3b_2
*I *832:B1 I *D sky130_fd_sc_hd__o21ai_2
*I *830:A I *D sky130_fd_sc_hd__nor2_1
*I *826:S1 I *D sky130_fd_sc_hd__mux4_2
*I *825:S0 I *D sky130_fd_sc_hd__mux4_2
*I *829:C I *D sky130_fd_sc_hd__and3b_1
*I *837:S I *D sky130_fd_sc_hd__mux2_1
*I *946:Q O *D sky130_fd_sc_hd__dfrtp_2
*CAP
1 *775:A 0.000219651
2 *906:A 8.32096e-05
3 *831:A 0
4 *832:B1 0
5 *830:A 2.26741e-05
6 *826:S1 0.000254713
7 *825:S0 3.11988e-05
8 *829:C 2.56688e-05
9 *837:S 8.4707e-05
10 *946:Q 6.50276e-05
11 *23:55 0.000562462
12 *23:43 0.000471126
13 *23:38 0.000336459
14 *23:36 0.000383107
15 *23:31 0.00046196
16 *23:20 0.000604047
17 *23:11 0.0013659
18 *23:7 0.00116474
19 *775:A *943:RESET_B 0
20 *825:S0 *825:A1 0
21 *826:S1 *826:A3 0
22 *826:S1 *944:CLK 0
23 *826:S1 *83:16 0
24 *826:S1 *134:8 0
25 *826:S1 *147:16 0
26 *830:A *944:CLK 0
27 *837:S *837:A1 0
28 *906:A *831:C_N 0
29 *906:A *25:13 0
30 *23:11 *952:A 0
31 *23:11 *161:11 0
32 *23:20 *61:8 0
33 *23:20 *77:13 0
34 *23:20 *143:12 0
35 *23:31 *834:A1 0
36 *23:31 *834:B1 0
37 *23:31 *77:13 0
38 *23:31 *143:12 0
39 *23:36 *831:C_N 0
40 *23:36 *834:A1 0
41 *23:38 *25:21 0
42 *23:43 *825:A1 0
43 *23:43 *25:25 0
44 *23:43 *75:19 0
45 *23:43 *79:30 0
46 *23:55 *825:A1 0
47 *23:55 *75:19 0
48 *23:55 *134:8 0
*RES
1 *946:Q *23:7 19.6571 
2 *23:7 *23:11 28 
3 *23:11 *837:S 11.0679 
4 *23:11 *23:20 19.4464 
5 *23:20 *829:C 18.8357 
6 *23:20 *23:31 13.6786 
7 *23:31 *23:36 4.26786 
8 *23:36 *23:38 3.82143 
9 *23:38 *23:43 12.7589 
10 *23:43 *825:S0 9.8125 
11 *23:43 *23:55 16.5625 
12 *23:55 *826:S1 33.425 
13 *23:55 *830:A 9.83571 
14 *23:38 *832:B1 9.3 
15 *23:36 *831:A 9.3 
16 *23:31 *906:A 11.0679 
17 *23:7 *775:A 23.4429 
*END

*D_NET *24 0.000272267
*CONN
*I *945:D I *D sky130_fd_sc_hd__dfrtp_2
*I *776:Y O *D sky130_fd_sc_hd__inv_2
*CAP
1 *945:D 0.000136134
2 *776:Y 0.000136134
3 *945:D *776:A 0
4 *945:D *945:CLK 0
5 *945:D *25:11 0
6 *951:A *945:D 0
*RES
1 *776:Y *945:D 39.7071 
*END

*D_NET *25 0.00567919
*CONN
*I *776:A I *D sky130_fd_sc_hd__inv_2
*I *829:B I *D sky130_fd_sc_hd__and3b_1
*I *830:B I *D sky130_fd_sc_hd__nor2_1
*I *838:B2 I *D sky130_fd_sc_hd__a22o_2
*I *826:S0 I *D sky130_fd_sc_hd__mux4_2
*I *832:A1 I *D sky130_fd_sc_hd__o21ai_2
*I *825:S1 I *D sky130_fd_sc_hd__mux4_2
*I *833:A I *D sky130_fd_sc_hd__nand2_1
*I *831:B I *D sky130_fd_sc_hd__or3b_2
*I *945:Q O *D sky130_fd_sc_hd__dfrtp_2
*CAP
1 *776:A 0.000281157
2 *829:B 0.000366605
3 *830:B 2.56688e-05
4 *838:B2 0.000279362
5 *826:S0 6.20329e-05
6 *832:A1 0
7 *825:S1 0.000109573
8 *833:A 6.58832e-05
9 *831:B 0
10 *945:Q 0.000239147
11 *25:54 0.000439448
12 *25:50 0.000475823
13 *25:27 0.000314709
14 *25:25 0.000223318
15 *25:21 0.000615634
16 *25:13 0.000518509
17 *25:11 0.000923831
18 *25:5 0.000738489
19 *776:A *953:A 0
20 *776:A *955:A 0
21 *825:S1 *83:16 0
22 *826:S0 *826:A3 0
23 *829:B *829:A_N 0
24 *829:B *952:A 0
25 *829:B *953:A 0
26 *829:B *61:48 0
27 *830:B *944:CLK 0
28 *838:B2 *826:A3 0
29 *838:B2 *838:A2 0
30 *838:B2 *77:13 0
31 *838:B2 *147:16 0
32 *25:11 *945:CLK 0
33 *25:13 *831:C_N 0
34 *25:13 *834:A1 0
35 *25:13 *945:CLK 0
36 *25:50 *825:A0 0
37 *25:50 *75:19 0
38 *25:54 *75:19 0
39 *906:A *25:13 0
40 *945:D *776:A 0
41 *945:D *25:11 0
42 *951:A *776:A 0
43 *951:A *829:B 0
44 *23:38 *25:21 0
45 *23:43 *25:25 0
*RES
1 *945:Q *25:5 14.3536 
2 *25:5 *25:11 4.67857 
3 *25:11 *25:13 7.10714 
4 *25:13 *831:B 9.3 
5 *25:13 *25:21 3.83929 
6 *25:21 *25:25 1.78571 
7 *25:25 *25:27 3 
8 *25:27 *833:A 10.675 
9 *25:27 *825:S1 30.1571 
10 *25:25 *832:A1 9.3 
11 *25:21 *25:50 18.2321 
12 *25:50 *25:54 11.5536 
13 *25:54 *826:S0 1.29464 
14 *25:54 *838:B2 15.1929 
15 *25:50 *830:B 18.8357 
16 *25:11 *829:B 35.9429 
17 *25:5 *776:A 33.675 
*END

*D_NET *26 0.00028936
*CONN
*I *916:D I *D sky130_fd_sc_hd__dfrtp_4
*I *802:Y O *D sky130_fd_sc_hd__inv_2
*CAP
1 *916:D 0.00014468
2 *802:Y 0.00014468
3 *916:D *802:A 0
4 *916:D *957:A 0
*RES
1 *802:Y *916:D 40.3679 
*END

*D_NET *27 0.00171948
*CONN
*I *878:A I *D sky130_fd_sc_hd__inv_2
*I *802:A I *D sky130_fd_sc_hd__inv_2
*I *916:Q O *D sky130_fd_sc_hd__dfrtp_4
*CAP
1 *878:A 0.000238165
2 *802:A 0.000226277
3 *916:Q 0.000395299
4 *27:9 0.000859741
5 *802:A *917:CLK 0
6 *802:A *957:A 0
7 *878:A *917:CLK 0
8 *27:9 *158:21 0
9 *916:D *802:A 0
*RES
1 *916:Q *27:9 26.55 
2 *27:9 *802:A 24.1929 
3 *27:9 *878:A 23.6571 
*END

*D_NET *28 0.000102853
*CONN
*I *923:D I *D sky130_fd_sc_hd__dfrtp_4
*I *799:Y O *D sky130_fd_sc_hd__inv_2
*CAP
1 *923:D 5.14266e-05
2 *799:Y 5.14266e-05
3 *923:D *923:CLK 0
4 *923:D *163:8 0
*RES
1 *799:Y *923:D 37.9393 
*END

*D_NET *29 0.000841117
*CONN
*I *925:D I *D sky130_fd_sc_hd__dfrtp_4
*I *801:Y O *D sky130_fd_sc_hd__inv_2
*CAP
1 *925:D 0.000420558
2 *801:Y 0.000420558
3 *925:D *886:A 0
4 *925:D *925:CLK 0
5 *925:D *162:76 0
*RES
1 *801:Y *925:D 46.1357 
*END

*D_NET *30 0.000612965
*CONN
*I *801:A I *D sky130_fd_sc_hd__inv_2
*I *882:A I *D sky130_fd_sc_hd__inv_2
*I *925:Q O *D sky130_fd_sc_hd__dfrtp_4
*CAP
1 *801:A 0.000112065
2 *882:A 0
3 *925:Q 0.000194417
4 *30:8 0.000306483
5 *30:8 *862:B 0
6 *30:8 *892:A 0
7 *30:8 *921:CLK 0
*RES
1 *925:Q *30:8 22.925 
2 *30:8 *882:A 18.3 
3 *30:8 *801:A 21.0857 
*END

*D_NET *31 0.00122035
*CONN
*I *917:D I *D sky130_fd_sc_hd__dfrtp_4
*I *793:Y O *D sky130_fd_sc_hd__inv_2
*CAP
1 *917:D 0
2 *793:Y 0.000610176
3 *31:11 0.000610176
4 *31:11 *855:A 0
5 *31:11 *128:8 0
6 *31:11 *162:8 0
7 *31:11 *162:49 0
*RES
1 *793:Y *31:11 41.3357 
2 *31:11 *917:D 9.3 
*END

*D_NET *32 0.000897065
*CONN
*I *793:A I *D sky130_fd_sc_hd__inv_2
*I *879:A I *D sky130_fd_sc_hd__inv_2
*I *917:Q O *D sky130_fd_sc_hd__dfrtp_4
*CAP
1 *793:A 0.000305131
2 *879:A 9.80534e-05
3 *917:Q 4.53482e-05
4 *32:7 0.000448533
5 *793:A *806:B 0
6 *793:A *918:CLK 0
7 *793:A *949:CLK 0
8 *793:A *128:8 0
9 *879:A *918:CLK 0
10 *879:A *949:CLK 0
11 *879:A *128:8 0
*RES
1 *917:Q *32:7 19.2464 
2 *32:7 *879:A 20.8536 
3 *32:7 *793:A 26.3714 
*END

*D_NET *33 0.000453016
*CONN
*I *918:D I *D sky130_fd_sc_hd__dfrtp_4
*I *794:Y O *D sky130_fd_sc_hd__inv_2
*CAP
1 *918:D 0.000226508
2 *794:Y 0.000226508
3 *918:D *794:A 0
4 *918:D *949:CLK 0
*RES
1 *794:Y *918:D 41.6536 
*END

*D_NET *34 0.00132981
*CONN
*I *880:A I *D sky130_fd_sc_hd__inv_2
*I *794:A I *D sky130_fd_sc_hd__inv_2
*I *918:Q O *D sky130_fd_sc_hd__dfrtp_4
*CAP
1 *880:A 0.000358079
2 *794:A 0.000306826
3 *918:Q 0
4 *34:4 0.000664906
5 *794:A *949:CLK 0
6 *794:A *163:14 0
7 *918:D *794:A 0
*RES
1 *918:Q *34:4 9.3 
2 *34:4 *794:A 34.2107 
3 *34:4 *880:A 16.8357 
*END

*D_NET *35 0.000597145
*CONN
*I *919:D I *D sky130_fd_sc_hd__dfrtp_4
*I *795:Y O *D sky130_fd_sc_hd__inv_2
*CAP
1 *919:D 0.000298573
2 *795:Y 0.000298573
3 *919:D *919:CLK 0
4 *919:D *920:CLK 0
5 *919:D *920:D 0