*SPEF "ieee 1481-1999"
*DESIGN "tt2_tholin_diceroll"
*DATE "11:11:11 Fri 11 11, 1111"
*VENDOR "OpenRCX"
*PROGRAM "Parallel Extraction"
*VERSION "1.0"
*DESIGN_FLOW "NAME_SCOPE LOCAL" "PIN_CAP NONE"
*DIVIDER /
*DELIMITER :
*BUS_DELIMITER []
*T_UNIT 1 NS
*C_UNIT 1 PF
*R_UNIT 1 OHM
*L_UNIT 1 HENRY

*NAME_MAP
*1 clk
*2 io_in
*3 io_out[0]
*4 io_out[1]
*5 io_out[2]
*6 io_out[3]
*7 io_out[4]
*8 io_out[5]
*9 io_out[6]
*10 io_out[7]
*11 rst
*14 _000_
*15 _001_
*16 _002_
*17 _003_
*18 _004_
*19 _005_
*20 _006_
*21 _007_
*22 _008_
*23 _009_
*24 _010_
*25 _011_
*26 _012_
*27 _013_
*28 _014_
*29 _015_
*30 _016_
*31 _017_
*32 _018_
*33 _019_
*34 _020_
*35 _021_
*36 _022_
*37 _023_
*38 _024_
*39 _025_
*40 _026_
*41 _027_
*42 _028_
*43 _029_
*44 _030_
*45 _031_
*46 _032_
*47 _033_
*48 _034_
*49 _035_
*50 _036_
*51 _037_
*52 _038_
*53 _039_
*54 _040_
*55 _041_
*56 _042_
*57 _043_
*58 _044_
*59 _045_
*60 _046_
*61 _047_
*62 _048_
*63 _049_
*64 _050_
*65 _051_
*66 _052_
*67 _053_
*68 _054_
*69 _055_
*70 _056_
*71 _057_
*72 _058_
*73 _059_
*74 _060_
*75 _061_
*76 _062_
*77 _063_
*78 _064_
*79 _065_
*80 _066_
*81 _067_
*82 _068_
*83 _069_
*84 _070_
*85 _071_
*86 _072_
*87 _073_
*88 _074_
*89 _075_
*90 _076_
*91 _077_
*92 _078_
*93 _079_
*94 _080_
*95 _081_
*96 _082_
*97 _083_
*98 _084_
*99 _085_
*100 _086_
*101 _087_
*102 _088_
*103 _089_
*104 _090_
*105 _091_
*106 _092_
*107 _093_
*108 _094_
*109 _095_
*110 _096_
*111 _097_
*112 _098_
*113 _099_
*114 _100_
*115 _101_
*116 _102_
*117 _103_
*118 _104_
*119 _105_
*120 _106_
*121 _107_
*122 _108_
*123 _109_
*124 _110_
*125 _111_
*126 _112_
*127 _113_
*128 _114_
*129 _115_
*130 _116_
*131 _117_
*132 _118_
*133 _119_
*134 _120_
*135 _121_
*136 _122_
*137 _123_
*138 _124_
*139 _125_
*140 _126_
*141 _127_
*142 _128_
*143 _129_
*144 _130_
*145 _131_
*146 _132_
*147 _133_
*148 _134_
*149 _135_
*150 _136_
*151 _137_
*152 _138_
*153 _139_
*154 _140_
*155 _141_
*156 _142_
*157 _143_
*158 _144_
*159 _145_
*160 _146_
*161 _147_
*162 _148_
*163 _149_
*164 _150_
*165 _151_
*166 _152_
*167 _153_
*168 _154_
*169 _155_
*170 _156_
*171 _157_
*172 _158_
*173 _159_
*174 _160_
*175 _161_
*176 _162_
*177 _163_
*178 _164_
*179 _165_
*180 _166_
*181 _167_
*182 _168_
*183 _169_
*184 _170_
*185 _171_
*186 _172_
*187 _173_
*188 _174_
*189 _175_
*190 _176_
*191 _177_
*192 _178_
*193 _179_
*194 _180_
*195 _181_
*196 _182_
*197 _183_
*198 _184_
*199 _185_
*200 _186_
*201 _187_
*202 _188_
*203 _189_
*204 _190_
*205 _191_
*206 _192_
*207 _193_
*208 _194_
*209 _195_
*210 _196_
*211 _197_
*212 _198_
*213 _199_
*214 _200_
*215 _201_
*216 _202_
*217 _203_
*218 _204_
*219 _205_
*220 _206_
*221 _207_
*222 _208_
*223 _209_
*224 _210_
*225 _211_
*226 _212_
*227 _213_
*228 _214_
*229 _215_
*230 _216_
*231 _217_
*232 _218_
*233 _219_
*234 _220_
*235 _221_
*236 _222_
*237 _223_
*238 _224_
*239 _225_
*240 _226_
*241 _227_
*242 _228_
*243 _229_
*244 _230_
*245 _231_
*246 _232_
*247 _233_
*248 _234_
*249 _235_
*250 _236_
*251 _237_
*252 _238_
*253 _239_
*254 _240_
*255 _241_
*256 _242_
*257 _243_
*258 _244_
*259 _245_
*260 _246_
*261 _247_
*262 _248_
*263 _249_
*264 _250_
*265 _251_
*266 clknet_0_clk
*267 clknet_2_0__leaf_clk
*268 clknet_2_1__leaf_clk
*269 clknet_2_2__leaf_clk
*270 clknet_2_3__leaf_clk
*271 dice\.bcd\[0\]
*272 dice\.bcd\[1\]
*273 dice\.bcd\[2\]
*274 dice\.clkdiv\[0\]
*275 dice\.clkdiv\[1\]
*276 dice\.clkdiv\[2\]
*277 dice\.clkdiv\[3\]
*278 dice\.clkdiv\[4\]
*279 dice\.clkdiv\[5\]
*280 dice\.clkdiv\[6\]
*281 dice\.clkdiv\[7\]
*282 dice\.counter\[0\]
*283 dice\.counter\[10\]
*284 dice\.counter\[11\]
*285 dice\.counter\[12\]
*286 dice\.counter\[13\]
*287 dice\.counter\[14\]
*288 dice\.counter\[15\]
*289 dice\.counter\[1\]
*290 dice\.counter\[2\]
*291 dice\.counter\[3\]
*292 dice\.counter\[4\]
*293 dice\.counter\[5\]
*294 dice\.counter\[6\]
*295 dice\.counter\[7\]
*296 dice\.counter\[8\]
*297 dice\.counter\[9\]
*298 dice\.lfsr\[0\]
*299 dice\.lfsr\[10\]
*300 dice\.lfsr\[11\]
*301 dice\.lfsr\[12\]
*302 dice\.lfsr\[13\]
*303 dice\.lfsr\[14\]
*304 dice\.lfsr\[15\]
*305 dice\.lfsr\[1\]
*306 dice\.lfsr\[2\]
*307 dice\.lfsr\[3\]
*308 dice\.lfsr\[4\]
*309 dice\.lfsr\[5\]
*310 dice\.lfsr\[6\]
*311 dice\.lfsr\[7\]
*312 dice\.lfsr\[8\]
*313 dice\.lfsr\[9\]
*314 dice\.r_counter\[0\]
*315 dice\.r_counter\[1\]
*316 dice\.r_counter\[2\]
*317 net1
*318 net10
*319 net2
*320 net3
*321 net4
*322 net5
*323 net6
*324 net7
*325 net8
*326 net9
*327 ANTENNA__277__A
*328 ANTENNA__279__A
*329 ANTENNA__300__A
*330 ANTENNA__307__A_N
*331 ANTENNA__311__A_N
*332 ANTENNA__322__A
*333 ANTENNA__356__A
*334 ANTENNA__357__A_N
*335 ANTENNA__370__A
*336 ANTENNA__384__A
*337 ANTENNA__385__B
*338 ANTENNA__387__B1
*339 ANTENNA__390__B1
*340 ANTENNA__392__B1
*341 ANTENNA__394__B1
*342 ANTENNA__398__A
*343 ANTENNA__401__A
*344 ANTENNA__415__B1
*345 ANTENNA__417__C1
*346 ANTENNA__431__A
*347 ANTENNA__433__A
*348 ANTENNA__436__A
*349 ANTENNA__439__A
*350 ANTENNA__442__A
*351 ANTENNA__444__A
*352 ANTENNA__448__A
*353 ANTENNA__454__B
*354 ANTENNA__458__B1
*355 ANTENNA__462__A
*356 ANTENNA__464__C1
*357 ANTENNA__467__A
*358 ANTENNA__469__A
*359 ANTENNA__472__B
*360 ANTENNA__476__A
*361 ANTENNA__478__A
*362 ANTENNA__482__A
*363 ANTENNA__484__A
*364 ANTENNA__490__B1
*365 ANTENNA__494__B1
*366 ANTENNA__496__B1
*367 ANTENNA_clkbuf_0_clk_A
*368 ANTENNA_input1_A
*369 ANTENNA_input2_A
*370 FILLER_0_103
*371 FILLER_0_111
*372 FILLER_0_113
*373 FILLER_0_117
*374 FILLER_0_137
*375 FILLER_0_141
*376 FILLER_0_159
*377 FILLER_0_166
*378 FILLER_0_169
*379 FILLER_0_181
*380 FILLER_0_187
*381 FILLER_0_21
*382 FILLER_0_27
*383 FILLER_0_29
*384 FILLER_0_3
*385 FILLER_0_35
*386 FILLER_0_46
*387 FILLER_0_54
*388 FILLER_0_57
*389 FILLER_0_65
*390 FILLER_0_72
*391 FILLER_0_82
*392 FILLER_0_85
*393 FILLER_0_9
*394 FILLER_10_101
*395 FILLER_10_107
*396 FILLER_10_115
*397 FILLER_10_12
*398 FILLER_10_121
*399 FILLER_10_136
*400 FILLER_10_141
*401 FILLER_10_153
*402 FILLER_10_157
*403 FILLER_10_162
*404 FILLER_10_171
*405 FILLER_10_177
*406 FILLER_10_186
*407 FILLER_10_23
*408 FILLER_10_27
*409 FILLER_10_29
*410 FILLER_10_3
*411 FILLER_10_36
*412 FILLER_10_45
*413 FILLER_10_55
*414 FILLER_10_64
*415 FILLER_10_70
*416 FILLER_10_81
*417 FILLER_10_85
*418 FILLER_10_93
*419 FILLER_11_110
*420 FILLER_11_113
*421 FILLER_11_122
*422 FILLER_11_136
*423 FILLER_11_156
*424 FILLER_11_16
*425 FILLER_11_166
*426 FILLER_11_169
*427 FILLER_11_173
*428 FILLER_11_183
*429 FILLER_11_189
*430 FILLER_11_20
*431 FILLER_11_3
*432 FILLER_11_37
*433 FILLER_11_48
*434 FILLER_11_57
*435 FILLER_11_68
*436 FILLER_11_74
*437 FILLER_11_83
*438 FILLER_11_89
*439 FILLER_11_96
*440 FILLER_12_100
*441 FILLER_12_113
*442 FILLER_12_127
*443 FILLER_12_138
*444 FILLER_12_141
*445 FILLER_12_147
*446 FILLER_12_15
*447 FILLER_12_156
*448 FILLER_12_169
*449 FILLER_12_181
*450 FILLER_12_188
*451 FILLER_12_27
*452 FILLER_12_29
*453 FILLER_12_3
*454 FILLER_12_37
*455 FILLER_12_44
*456 FILLER_12_51
*457 FILLER_12_60
*458 FILLER_12_68
*459 FILLER_12_74
*460 FILLER_12_82
*461 FILLER_12_85
*462 FILLER_12_89
*463 FILLER_13_101
*464 FILLER_13_109
*465 FILLER_13_113
*466 FILLER_13_119
*467 FILLER_13_131
*468 FILLER_13_140
*469 FILLER_13_146
*470 FILLER_13_15
*471 FILLER_13_150
*472 FILLER_13_158
*473 FILLER_13_162
*474 FILLER_13_169
*475 FILLER_13_174
*476 FILLER_13_182
*477 FILLER_13_3
*478 FILLER_13_33
*479 FILLER_13_54
*480 FILLER_13_57
*481 FILLER_13_64
*482 FILLER_13_84
*483 FILLER_13_95
*484 FILLER_14_107
*485 FILLER_14_11
*486 FILLER_14_117
*487 FILLER_14_132
*488 FILLER_14_138
*489 FILLER_14_141
*490 FILLER_14_146
*491 FILLER_14_160
*492 FILLER_14_174
*493 FILLER_14_18
*494 FILLER_14_185
*495 FILLER_14_189
*496 FILLER_14_25
*497 FILLER_14_29
*498 FILLER_14_3
*499 FILLER_14_33
*500 FILLER_14_65
*501 FILLER_14_75
*502 FILLER_14_79
*503 FILLER_14_82
*504 FILLER_14_85
*505 FILLER_15_106
*506 FILLER_15_113
*507 FILLER_15_118
*508 FILLER_15_131
*509 FILLER_15_139
*510 FILLER_15_15
*511 FILLER_15_156
*512 FILLER_15_163
*513 FILLER_15_167
*514 FILLER_15_169
*515 FILLER_15_179
*516 FILLER_15_188
*517 FILLER_15_19
*518 FILLER_15_27
*519 FILLER_15_3
*520 FILLER_15_36
*521 FILLER_15_43
*522 FILLER_15_54
*523 FILLER_15_57
*524 FILLER_15_75
*525 FILLER_15_83
*526 FILLER_15_94
*527 FILLER_15_98
*528 FILLER_16_100
*529 FILLER_16_106
*530 FILLER_16_118
*531 FILLER_16_128
*532 FILLER_16_138
*533 FILLER_16_141
*534 FILLER_16_145
*535 FILLER_16_149
*536 FILLER_16_158
*537 FILLER_16_170
*538 FILLER_16_183
*539 FILLER_16_189
*540 FILLER_16_20
*541 FILLER_16_29
*542 FILLER_16_3
*543 FILLER_16_36
*544 FILLER_16_50
*545 FILLER_16_58
*546 FILLER_16_67
*547 FILLER_16_78
*548 FILLER_16_85
*549 FILLER_16_92
*550 FILLER_17_103
*551 FILLER_17_110
*552 FILLER_17_113
*553 FILLER_17_120
*554 FILLER_17_128
*555 FILLER_17_135
*556 FILLER_17_141
*557 FILLER_17_148
*558 FILLER_17_15
*559 FILLER_17_152
*560 FILLER_17_161
*561 FILLER_17_167
*562 FILLER_17_169
*563 FILLER_17_174
*564 FILLER_17_183
*565 FILLER_17_189
*566 FILLER_17_3
*567 FILLER_17_34
*568 FILLER_17_54
*569 FILLER_17_57
*570 FILLER_17_66
*571 FILLER_17_74
*572 FILLER_17_82
*573 FILLER_17_91
*574 FILLER_17_99
*575 FILLER_18_107
*576 FILLER_18_118
*577 FILLER_18_130
*578 FILLER_18_138
*579 FILLER_18_141
*580 FILLER_18_159
*581 FILLER_18_16
*582 FILLER_18_174
*583 FILLER_18_184
*584 FILLER_18_23
*585 FILLER_18_27
*586 FILLER_18_29
*587 FILLER_18_3
*588 FILLER_18_35
*589 FILLER_18_47
*590 FILLER_18_60
*591 FILLER_18_68
*592 FILLER_18_8
*593 FILLER_18_82
*594 FILLER_18_85
*595 FILLER_18_93
*596 FILLER_19_104
*597 FILLER_19_11
*598 FILLER_19_110
*599 FILLER_19_113
*600 FILLER_19_118
*601 FILLER_19_130
*602 FILLER_19_144
*603 FILLER_19_156
*604 FILLER_19_160
*605 FILLER_19_164
*606 FILLER_19_169
*607 FILLER_19_18
*608 FILLER_19_180
*609 FILLER_19_188
*610 FILLER_19_26
*611 FILLER_19_3
*612 FILLER_19_43
*613 FILLER_19_54
*614 FILLER_19_57
*615 FILLER_19_63
*616 FILLER_19_69
*617 FILLER_19_93
*618 FILLER_19_97
*619 FILLER_1_110
*620 FILLER_1_113
*621 FILLER_1_131
*622 FILLER_1_139
*623 FILLER_1_15
*624 FILLER_1_156
*625 FILLER_1_160
*626 FILLER_1_166
*627 FILLER_1_169
*628 FILLER_1_180
*629 FILLER_1_188
*630 FILLER_1_3
*631 FILLER_1_34
*632 FILLER_1_54
*633 FILLER_1_57
*634 FILLER_1_66
*635 FILLER_1_88
*636 FILLER_20_102
*637 FILLER_20_11
*638 FILLER_20_110
*639 FILLER_20_125
*640 FILLER_20_137
*641 FILLER_20_141
*642 FILLER_20_159
*643 FILLER_20_167
*644 FILLER_20_173
*645 FILLER_20_18
*646 FILLER_20_180
*647 FILLER_20_187
*648 FILLER_20_24
*649 FILLER_20_29
*650 FILLER_20_3
*651 FILLER_20_41
*652 FILLER_20_65
*653 FILLER_20_72
*654 FILLER_20_78
*655 FILLER_20_82
*656 FILLER_20_85
*657 FILLER_20_92
*658 FILLER_21_102
*659 FILLER_21_108
*660 FILLER_21_113
*661 FILLER_21_130
*662 FILLER_21_138
*663 FILLER_21_145
*664 FILLER_21_152
*665 FILLER_21_160
*666 FILLER_21_166
*667 FILLER_21_169
*668 FILLER_21_17
*669 FILLER_21_178
*670 FILLER_21_186
*671 FILLER_21_3
*672 FILLER_21_37
*673 FILLER_21_49
*674 FILLER_21_55
*675 FILLER_21_57
*676 FILLER_21_63
*677 FILLER_21_72
*678 FILLER_21_80
*679 FILLER_21_89
*680 FILLER_22_103
*681 FILLER_22_107
*682 FILLER_22_111
*683 FILLER_22_123
*684 FILLER_22_133
*685 FILLER_22_139
*686 FILLER_22_141
*687 FILLER_22_15
*688 FILLER_22_150
*689 FILLER_22_158
*690 FILLER_22_168
*691 FILLER_22_180
*692 FILLER_22_188
*693 FILLER_22_26
*694 FILLER_22_29
*695 FILLER_22_3
*696 FILLER_22_49
*697 FILLER_22_59
*698 FILLER_22_79
*699 FILLER_22_83
*700 FILLER_22_85
*701 FILLER_23_100
*702 FILLER_23_107
*703 FILLER_23_111
*704 FILLER_23_113
*705 FILLER_23_117
*706 FILLER_23_134
*707 FILLER_23_15
*708 FILLER_23_154
*709 FILLER_23_166
*710 FILLER_23_169
*711 FILLER_23_178
*712 FILLER_23_19
*713 FILLER_23_3
*714 FILLER_23_36
*715 FILLER_23_48
*716 FILLER_23_51
*717 FILLER_23_55
*718 FILLER_23_57
*719 FILLER_23_65
*720 FILLER_23_72
*721 FILLER_23_80
*722 FILLER_23_84
*723 FILLER_23_91
*724 FILLER_24_107
*725 FILLER_24_122
*726 FILLER_24_129
*727 FILLER_24_137
*728 FILLER_24_141
*729 FILLER_24_145
*730 FILLER_24_15
*731 FILLER_24_151
*732 FILLER_24_161
*733 FILLER_24_173
*734 FILLER_24_185
*735 FILLER_24_189
*736 FILLER_24_26
*737 FILLER_24_29
*738 FILLER_24_3
*739 FILLER_24_36
*740 FILLER_24_44
*741 FILLER_24_61
*742 FILLER_24_81
*743 FILLER_24_85
*744 FILLER_25_105
*745 FILLER_25_111
*746 FILLER_25_113
*747 FILLER_25_125
*748 FILLER_25_132
*749 FILLER_25_136
*750 FILLER_25_15
*751 FILLER_25_153
*752 FILLER_25_165
*753 FILLER_25_169
*754 FILLER_25_181
*755 FILLER_25_189
*756 FILLER_25_21
*757 FILLER_25_3
*758 FILLER_25_38
*759 FILLER_25_50
*760 FILLER_25_54
*761 FILLER_25_57
*762 FILLER_25_64
*763 FILLER_25_72
*764 FILLER_25_78
*765 FILLER_25_98
*766 FILLER_26_117
*767 FILLER_26_126
*768 FILLER_26_132
*769 FILLER_26_141
*770 FILLER_26_15
*771 FILLER_26_153
*772 FILLER_26_165
*773 FILLER_26_177
*774 FILLER_26_189
*775 FILLER_26_23
*776 FILLER_26_27
*777 FILLER_26_29
*778 FILLER_26_3
*779 FILLER_26_33
*780 FILLER_26_45
*781 FILLER_26_62
*782 FILLER_26_82
*783 FILLER_26_85
*784 FILLER_26_97
*785 FILLER_27_102
*786 FILLER_27_109
*787 FILLER_27_113
*788 FILLER_27_118
*789 FILLER_27_124
*790 FILLER_27_130
*791 FILLER_27_138
*792 FILLER_27_141
*793 FILLER_27_15
*794 FILLER_27_153
*795 FILLER_27_161
*796 FILLER_27_166
*797 FILLER_27_169
*798 FILLER_27_181
*799 FILLER_27_189
*800 FILLER_27_24
*801 FILLER_27_29
*802 FILLER_27_3
*803 FILLER_27_47
*804 FILLER_27_54
*805 FILLER_27_57
*806 FILLER_27_64
*807 FILLER_27_70
*808 FILLER_27_82
*809 FILLER_27_85
*810 FILLER_27_90
*811 FILLER_27_96
*812 FILLER_2_107
*813 FILLER_2_114
*814 FILLER_2_122
*815 FILLER_2_133
*816 FILLER_2_139
*817 FILLER_2_141
*818 FILLER_2_147
*819 FILLER_2_15
*820 FILLER_2_155
*821 FILLER_2_160
*822 FILLER_2_168
*823 FILLER_2_177
*824 FILLER_2_183
*825 FILLER_2_188
*826 FILLER_2_27
*827 FILLER_2_29
*828 FILLER_2_3
*829 FILLER_2_47
*830 FILLER_2_62
*831 FILLER_2_74
*832 FILLER_2_78
*833 FILLER_2_82
*834 FILLER_2_85
*835 FILLER_2_92
*836 FILLER_2_99
*837 FILLER_3_105
*838 FILLER_3_111
*839 FILLER_3_113
*840 FILLER_3_131
*841 FILLER_3_15
*842 FILLER_3_155
*843 FILLER_3_166
*844 FILLER_3_169
*845 FILLER_3_177
*846 FILLER_3_183
*847 FILLER_3_189
*848 FILLER_3_27
*849 FILLER_3_3
*850 FILLER_3_35
*851 FILLER_3_40
*852 FILLER_3_49
*853 FILLER_3_55
*854 FILLER_3_57
*855 FILLER_3_65
*856 FILLER_3_75
*857 FILLER_3_84
*858 FILLER_3_88
*859 FILLER_4_108
*860 FILLER_4_115
*861 FILLER_4_127
*862 FILLER_4_135
*863 FILLER_4_138
*864 FILLER_4_141
*865 FILLER_4_15
*866 FILLER_4_151
*867 FILLER_4_163
*868 FILLER_4_172
*869 FILLER_4_186
*870 FILLER_4_25
*871 FILLER_4_29
*872 FILLER_4_3
*873 FILLER_4_33
*874 FILLER_4_36
*875 FILLER_4_50
*876 FILLER_4_56
*877 FILLER_4_62
*878 FILLER_4_82
*879 FILLER_4_85
*880 FILLER_4_90
*881 FILLER_4_99
*882 FILLER_5_101
*883 FILLER_5_11
*884 FILLER_5_110
*885 FILLER_5_113
*886 FILLER_5_133
*887 FILLER_5_155
*888 FILLER_5_161
*889 FILLER_5_166
*890 FILLER_5_169
*891 FILLER_5_182
*892 FILLER_5_188
*893 FILLER_5_28
*894 FILLER_5_3
*895 FILLER_5_48
*896 FILLER_5_54
*897 FILLER_5_57
*898 FILLER_5_68
*899 FILLER_5_72
*900 FILLER_5_93
*901 FILLER_6_108
*902 FILLER_6_11
*903 FILLER_6_114
*904 FILLER_6_118
*905 FILLER_6_125
*906 FILLER_6_129
*907 FILLER_6_138
*908 FILLER_6_14
*909 FILLER_6_141
*910 FILLER_6_147
*911 FILLER_6_150
*912 FILLER_6_162
*913 FILLER_6_166
*914 FILLER_6_173
*915 FILLER_6_182
*916 FILLER_6_188
*917 FILLER_6_22
*918 FILLER_6_29
*919 FILLER_6_3
*920 FILLER_6_33
*921 FILLER_6_41
*922 FILLER_6_65
*923 FILLER_6_74
*924 FILLER_6_82
*925 FILLER_6_85
*926 FILLER_6_97
*927 FILLER_7_102
*928 FILLER_7_109
*929 FILLER_7_113
*930 FILLER_7_119
*931 FILLER_7_125
*932 FILLER_7_129
*933 FILLER_7_135
*934 FILLER_7_147
*935 FILLER_7_15
*936 FILLER_7_157
*937 FILLER_7_163
*938 FILLER_7_166
*939 FILLER_7_169
*940 FILLER_7_174
*941 FILLER_7_185
*942 FILLER_7_189
*943 FILLER_7_22
*944 FILLER_7_3
*945 FILLER_7_30
*946 FILLER_7_34
*947 FILLER_7_54
*948 FILLER_7_57
*949 FILLER_7_62
*950 FILLER_7_70
*951 FILLER_7_81
*952 FILLER_7_92
*953 FILLER_8_110
*954 FILLER_8_116
*955 FILLER_8_119
*956 FILLER_8_130
*957 FILLER_8_138
*958 FILLER_8_141
*959 FILLER_8_15
*960 FILLER_8_159
*961 FILLER_8_169
*962 FILLER_8_178
*963 FILLER_8_186
*964 FILLER_8_26
*965 FILLER_8_29
*966 FILLER_8_3
*967 FILLER_8_47
*968 FILLER_8_55
*969 FILLER_8_72
*970 FILLER_8_76
*971 FILLER_8_8
*972 FILLER_8_82
*973 FILLER_8_85
*974 FILLER_8_90
*975 FILLER_9_100
*976 FILLER_9_103
*977 FILLER_9_11
*978 FILLER_9_110
*979 FILLER_9_113
*980 FILLER_9_131
*981 FILLER_9_139
*982 FILLER_9_151
*983 FILLER_9_163
*984 FILLER_9_167
*985 FILLER_9_169
*986 FILLER_9_184
*987 FILLER_9_21
*988 FILLER_9_3
*989 FILLER_9_30
*990 FILLER_9_36
*991 FILLER_9_42
*992 FILLER_9_50
*993 FILLER_9_54
*994 FILLER_9_57
*995 FILLER_9_65
*996 FILLER_9_85
*997 FILLER_9_89
*998 FILLER_9_96
*999 PHY_0
*1000 PHY_1
*1001 PHY_10
*1002 PHY_11
*1003 PHY_12
*1004 PHY_13
*1005 PHY_14
*1006 PHY_15
*1007 PHY_16
*1008 PHY_17
*1009 PHY_18
*1010 PHY_19
*1011 PHY_2
*1012 PHY_20
*1013 PHY_21
*1014 PHY_22
*1015 PHY_23
*1016 PHY_24
*1017 PHY_25
*1018 PHY_26
*1019 PHY_27
*1020 PHY_28
*1021 PHY_29
*1022 PHY_3
*1023 PHY_30
*1024 PHY_31
*1025 PHY_32
*1026 PHY_33
*1027 PHY_34
*1028 PHY_35
*1029 PHY_36
*1030 PHY_37
*1031 PHY_38
*1032 PHY_39
*1033 PHY_4
*1034 PHY_40
*1035 PHY_41
*1036 PHY_42
*1037 PHY_43
*1038 PHY_44
*1039 PHY_45
*1040 PHY_46
*1041 PHY_47
*1042 PHY_48
*1043 PHY_49
*1044 PHY_5
*1045 PHY_50
*1046 PHY_51
*1047 PHY_52
*1048 PHY_53
*1049 PHY_54
*1050 PHY_55
*1051 PHY_6
*1052 PHY_7
*1053 PHY_8
*1054 PHY_9
*1055 TAP_100
*1056 TAP_101
*1057 TAP_102
*1058 TAP_103
*1059 TAP_104
*1060 TAP_105
*1061 TAP_106
*1062 TAP_107
*1063 TAP_108
*1064 TAP_109
*1065 TAP_110
*1066 TAP_111
*1067 TAP_112
*1068 TAP_113
*1069 TAP_114
*1070 TAP_115
*1071 TAP_116
*1072 TAP_117
*1073 TAP_118
*1074 TAP_119
*1075 TAP_120
*1076 TAP_121
*1077 TAP_122
*1078 TAP_123
*1079 TAP_124
*1080 TAP_125
*1081 TAP_126
*1082 TAP_127
*1083 TAP_128
*1084 TAP_129
*1085 TAP_130
*1086 TAP_131
*1087 TAP_132
*1088 TAP_133
*1089 TAP_134
*1090 TAP_135
*1091 TAP_136
*1092 TAP_137
*1093 TAP_138
*1094 TAP_139
*1095 TAP_140
*1096 TAP_141
*1097 TAP_142
*1098 TAP_143
*1099 TAP_144
*1100 TAP_145
*1101 TAP_56
*1102 TAP_57
*1103 TAP_58
*1104 TAP_59
*1105 TAP_60
*1106 TAP_61
*1107 TAP_62
*1108 TAP_63
*1109 TAP_64
*1110 TAP_65
*1111 TAP_66
*1112 TAP_67
*1113 TAP_68
*1114 TAP_69
*1115 TAP_70
*1116 TAP_71
*1117 TAP_72
*1118 TAP_73
*1119 TAP_74
*1120 TAP_75
*1121 TAP_76
*1122 TAP_77
*1123 TAP_78
*1124 TAP_79
*1125 TAP_80
*1126 TAP_81
*1127 TAP_82
*1128 TAP_83
*1129 TAP_84
*1130 TAP_85
*1131 TAP_86
*1132 TAP_87
*1133 TAP_88
*1134 TAP_89
*1135 TAP_90
*1136 TAP_91
*1137 TAP_92
*1138 TAP_93
*1139 TAP_94
*1140 TAP_95
*1141 TAP_96
*1142 TAP_97
*1143 TAP_98
*1144 TAP_99
*1145 _252_
*1146 _253_
*1147 _254_
*1148 _255_
*1149 _256_
*1150 _257_
*1151 _258_
*1152 _259_
*1153 _260_
*1154 _261_
*1155 _262_
*1156 _263_
*1157 _264_
*1158 _265_
*1159 _266_
*1160 _267_
*1161 _268_
*1162 _269_
*1163 _270_
*1164 _271_
*1165 _272_
*1166 _273_
*1167 _274_
*1168 _275_
*1169 _276_
*1170 _277_
*1171 _278_
*1172 _279_
*1173 _280_
*1174 _281_
*1175 _282_
*1176 _283_
*1177 _284_
*1178 _285_
*1179 _286_
*1180 _287_
*1181 _288_
*1182 _289_
*1183 _290_
*1184 _291_
*1185 _292_
*1186 _293_
*1187 _294_
*1188 _295_
*1189 _296_
*1190 _297_
*1191 _298_
*1192 _299_
*1193 _300_
*1194 _301_
*1195 _302_
*1196 _303_
*1197 _304_
*1198 _305_
*1199 _306_
*1200 _307_
*1201 _308_
*1202 _309_
*1203 _310_
*1204 _311_
*1205 _312_
*1206 _313_
*1207 _314_
*1208 _315_
*1209 _316_
*1210 _317_
*1211 _318_
*1212 _319_
*1213 _320_
*1214 _321_
*1215 _322_
*1216 _323_
*1217 _324_
*1218 _325_
*1219 _326_
*1220 _327_
*1221 _328_
*1222 _329_
*1223 _330_
*1224 _331_
*1225 _332_
*1226 _333_
*1227 _334_
*1228 _335_
*1229 _336_
*1230 _337_
*1231 _338_
*1232 _339_
*1233 _340_
*1234 _341_
*1235 _342_
*1236 _343_
*1237 _344_
*1238 _345_
*1239 _346_
*1240 _347_
*1241 _348_
*1242 _349_
*1243 _350_
*1244 _351_
*1245 _352_
*1246 _353_
*1247 _354_
*1248 _355_
*1249 _356_
*1250 _357_
*1251 _358_
*1252 _359_
*1253 _360_
*1254 _361_
*1255 _362_
*1256 _363_
*1257 _364_
*1258 _365_
*1259 _366_
*1260 _367_
*1261 _368_
*1262 _369_
*1263 _370_
*1264 _371_
*1265 _372_
*1266 _373_
*1267 _374_
*1268 _375_
*1269 _376_
*1270 _377_
*1271 _378_
*1272 _379_
*1273 _380_
*1274 _381_
*1275 _382_
*1276 _383_
*1277 _384_
*1278 _385_
*1279 _386_
*1280 _387_
*1281 _388_
*1282 _389_
*1283 _390_
*1284 _391_
*1285 _392_
*1286 _393_
*1287 _394_
*1288 _395_
*1289 _396_
*1290 _397_
*1291 _398_
*1292 _399_
*1293 _400_
*1294 _401_
*1295 _402_
*1296 _403_
*1297 _404_
*1298 _405_
*1299 _406_
*1300 _407_
*1301 _408_
*1302 _409_
*1303 _410_
*1304 _411_
*1305 _412_
*1306 _413_
*1307 _414_
*1308 _415_
*1309 _416_
*1310 _417_
*1311 _418_
*1312 _419_
*1313 _420_
*1314 _421_
*1315 _422_
*1316 _423_
*1317 _424_
*1318 _425_
*1319 _426_
*1320 _427_
*1321 _428_
*1322 _429_
*1323 _430_
*1324 _431_
*1325 _432_
*1326 _433_
*1327 _434_
*1328 _435_
*1329 _436_
*1330 _437_
*1331 _438_
*1332 _439_
*1333 _440_
*1334 _441_
*1335 _442_
*1336 _443_
*1337 _444_
*1338 _445_
*1339 _446_
*1340 _447_
*1341 _448_
*1342 _449_
*1343 _450_
*1344 _451_
*1345 _452_
*1346 _453_
*1347 _454_
*1348 _455_
*1349 _456_
*1350 _457_
*1351 _458_
*1352 _459_
*1353 _460_
*1354 _461_
*1355 _462_
*1356 _463_
*1357 _464_
*1358 _465_
*1359 _466_
*1360 _467_
*1361 _468_
*1362 _469_
*1363 _470_
*1364 _471_
*1365 _472_
*1366 _473_
*1367 _474_
*1368 _475_
*1369 _476_
*1370 _477_
*1371 _478_
*1372 _479_
*1373 _480_
*1374 _481_
*1375 _482_
*1376 _483_
*1377 _484_
*1378 _485_
*1379 _486_
*1380 _487_
*1381 _488_
*1382 _489_
*1383 _490_
*1384 _491_
*1385 _492_
*1386 _493_
*1387 _494_
*1388 _495_
*1389 _496_
*1390 _497_
*1391 _498_
*1392 _499_
*1393 _500_
*1394 _501_
*1395 _502_
*1396 _503_
*1397 _504_
*1398 _505_
*1399 _506_
*1400 _507_
*1401 _508_
*1402 _509_
*1403 _510_
*1404 _511_
*1405 _512_
*1406 _513_
*1407 _514_
*1408 _515_
*1409 _516_
*1410 _517_
*1411 _518_
*1412 _519_
*1413 _520_
*1414 _521_
*1415 _522_
*1416 _523_
*1417 _524_
*1418 _525_
*1419 _526_
*1420 _527_
*1421 _528_
*1422 _529_
*1423 _530_
*1424 _531_
*1425 _532_
*1426 _533_
*1427 _534_
*1428 _535_
*1429 _536_
*1430 _537_
*1431 _538_
*1432 _539_
*1433 _540_
*1434 _541_
*1435 _542_
*1436 _543_
*1437 _544_
*1438 _545_
*1439 _546_
*1440 _547_
*1441 _548_
*1442 _549_
*1443 _550_
*1444 _551_
*1445 _552_
*1446 _553_
*1447 _554_
*1448 _555_
*1449 _556_
*1450 _557_
*1451 clkbuf_0_clk
*1452 clkbuf_2_0__f_clk
*1453 clkbuf_2_1__f_clk
*1454 clkbuf_2_2__f_clk
*1455 clkbuf_2_3__f_clk
*1456 input1
*1457 input2
*1458 output10
*1459 output3
*1460 output4
*1461 output5
*1462 output6
*1463 output7
*1464 output8
*1465 output9

*PORTS
clk I
io_in I
io_out[0] O
io_out[1] O
io_out[2] O
io_out[3] O
io_out[4] O
io_out[5] O
io_out[6] O
io_out[7] O
rst I

*D_NET *1 0.00574599
*CONN
*P clk I
*I *367:DIODE I *D sky130_fd_sc_hd__diode_2
*I *1451:A I *D sky130_fd_sc_hd__clkbuf_16
*CAP
1 clk 0.0017261
2 *367:DIODE 2.56688e-05
3 *1451:A 0.000144156
4 *1:15 0.0011469
5 *1:12 0.00270317
6 *1451:A *90:37 0
7 *1451:A *152:33 0
8 *1451:A *266:11 0
9 *1:12 *1369:B 0
10 *1:12 *1370:A 0
11 *1:12 *1379:A 0
12 *1:12 *1380:A 0
13 *1:12 *1434:CLK 0
14 *1:12 *1434:D 0
15 *1:12 *183:98 0
16 *1:12 *183:106 0
17 *1:12 *183:107 0
18 *1:12 *183:191 0
19 *1:12 *270:98 0
20 *1:15 *332:DIODE 0
21 *1:15 *1215:A 0
22 *1:15 *1220:C 0
23 *1:15 *1300:A1 0
24 *1:15 *1413:D 0
25 *1:15 *77:40 0
26 *1:15 *87:44 0
27 *1:15 *90:37 0
28 *1:15 *90:44 0
29 *1:15 *152:25 0
30 *1:15 *152:33 0
31 *1:15 *183:44 0
32 *1:15 *211:10 0
33 *1:15 *270:8 0
34 *1:15 *270:18 0
35 *1:15 *270:79 0
36 *1:15 *270:91 0
37 *1:15 *277:22 0
*RES
1 clk *1:12 48.2857 
2 *1:12 *1:15 34.3214 
3 *1:15 *1451:A 21.5143 
4 *1:15 *367:DIODE 18.8357 
*END

*D_NET *2 0.000993514
*CONN
*P io_in I
*I *1456:A I *D sky130_fd_sc_hd__dlymetal6s2s_1
*I *368:DIODE I *D sky130_fd_sc_hd__diode_2
*CAP
1 io_in 0.000334616
2 *1456:A 9.86109e-05
3 *368:DIODE 6.35302e-05
4 *2:7 0.000496757
*RES
1 io_in *2:7 17.7143 
2 *2:7 *368:DIODE 10.6571 
3 *2:7 *1456:A 11.3893 
*END

*D_NET *3 0.000738124
*CONN
*P io_out[0] O
*I *1459:X O *D sky130_fd_sc_hd__buf_2
*CAP
1 io_out[0] 0.000369062
2 *1459:X 0.000369062
*RES
1 *1459:X io_out[0] 27.3714 
*END

*D_NET *4 0.000698765
*CONN
*P io_out[1] O
*I *1460:X O *D sky130_fd_sc_hd__buf_2
*CAP
1 io_out[1] 0.000349383
2 *1460:X 0.000349383
3 io_out[1] *320:9 0
*RES
1 *1460:X io_out[1] 26.9607 
*END

*D_NET *5 0.000698765
*CONN
*P io_out[2] O
*I *1461:X O *D sky130_fd_sc_hd__buf_2
*CAP
1 io_out[2] 0.000349383
2 *1461:X 0.000349383
3 io_out[2] *1276:B 0
*RES
1 *1461:X io_out[2] 26.9607 
*END

*D_NET *6 0.000659406
*CONN
*P io_out[3] O
*I *1462:X O *D sky130_fd_sc_hd__buf_2
*CAP
1 io_out[3] 0.000329703
2 *1462:X 0.000329703
3 io_out[3] *1462:A 0
4 io_out[3] *17:17 0
*RES
1 *1462:X io_out[3] 26.55 
*END

*D_NET *7 0.00103242
*CONN
*P io_out[4] O
*I *1463:X O *D sky130_fd_sc_hd__buf_2
*CAP
1 io_out[4] 0.00051621
2 *1463:X 0.00051621
3 io_out[4] *1402:D 0
4 io_out[4] *1463:A 0
5 io_out[4] *17:17 0
6 io_out[4] *268:65 0
7 io_out[4] *326:13 0
*RES
1 *1463:X io_out[4] 31.4071 
*END

*D_NET *8 0.00126857
*CONN
*P io_out[5] O
*I *1464:X O *D sky130_fd_sc_hd__buf_2
*CAP
1 io_out[5] 0.000634287
2 *1464:X 0.000634287
3 io_out[5] *1406:D 0
4 io_out[5] *1464:A 0
5 io_out[5] *268:55 0
6 io_out[5] *318:10 0
7 io_out[5] *326:13 0
*RES
1 *1464:X io_out[5] 33.8714 
*END

*D_NET *9 0.00111114
*CONN
*P io_out[6] O
*I *1465:X O *D sky130_fd_sc_hd__buf_2
*CAP
1 io_out[6] 0.000555569
2 *1465:X 0.000555569
3 io_out[6] *1193:B_N 0
4 io_out[6] *1362:B 0
5 io_out[6] *1430:D 0
6 io_out[6] *1458:A 0
7 io_out[6] *92:30 0
8 io_out[6] *92:39 0
9 io_out[6] *116:8 0
*RES
1 *1465:X io_out[6] 32.2286 
*END

*D_NET *10 0.00107154
*CONN
*P io_out[7] O
*I *1458:X O *D sky130_fd_sc_hd__buf_2
*CAP
1 io_out[7] 0.00053577
2 *1458:X 0.00053577
3 io_out[7] *1360:B 0
4 io_out[7] *46:9 0
*RES
1 *1458:X io_out[7] 31.8179 
*END

*D_NET *11 0.00183998
*CONN
*P rst I
*I *369:DIODE I *D sky130_fd_sc_hd__diode_2
*I *1457:A I *D sky130_fd_sc_hd__clkbuf_1
*CAP
1 rst 0.00062095
2 *369:DIODE 0.000299041
3 *1457:A 0
4 *11:16 0.000919991
5 *369:DIODE *1376:A 0
6 *369:DIODE *183:86 0
7 *11:16 *183:86 0
*RES
1 rst *11:16 25.0893 
2 *11:16 *1457:A 9.3 
3 *11:16 *369:DIODE 15.6036 
*END

*D_NET *14 0.000743289
*CONN
*I *1398:D I *D sky130_fd_sc_hd__dfxtp_1
*I *1264:X O *D sky130_fd_sc_hd__a211o_1
*CAP
1 *1398:D 0.000371645
2 *1264:X 0.000371645
3 *1398:D *1264:C1 0
4 *1398:D *1268:A1 0
5 *1398:D *1268:B1 0
6 *1398:D *1398:CLK 0
*RES
1 *1264:X *1398:D 44.6223 
*END

*D_NET *15 0.000664572
*CONN
*I *1399:D I *D sky130_fd_sc_hd__dfxtp_1
*I *1268:X O *D sky130_fd_sc_hd__a211o_1
*CAP
1 *1399:D 0.000332286
2 *1268:X 0.000332286
3 *1399:D *1264:A2 0
4 *1399:D *1264:C1 0
5 *1399:D *1265:A1 0
6 *1399:D *1399:CLK 0
7 *1399:D *187:24 0
*RES
1 *1268:X *1399:D 43.8009 
*END

*D_NET *16 0.000999049
*CONN
*I *1400:D I *D sky130_fd_sc_hd__dfxtp_1
*I *1271:Y O *D sky130_fd_sc_hd__a31oi_1
*CAP
1 *1400:D 7.80759e-05
2 *1271:Y 0.000421449
3 *16:12 0.000499525
4 *1400:D *1400:CLK 0
5 *1400:D *17:17 0
6 *16:12 *1266:A 0
7 *16:12 *1266:B 0
8 *16:12 *1275:A 0
9 *16:12 *1400:CLK 0
10 *16:12 *1424:CLK 0
11 *16:12 *1462:A 0
*RES
1 *1271:Y *16:12 46.5321 
2 *16:12 *1400:D 19.9295 
*END

*D_NET *17 0.00214822
*CONN
*I *1401:D I *D sky130_fd_sc_hd__dfxtp_1
*I *1273:Y O *D sky130_fd_sc_hd__nand2_1
*CAP
1 *1401:D 3.95727e-05
2 *1273:Y 0.00103454
3 *17:17 0.00107411
4 *17:17 *1273:A 0
5 *17:17 *1400:CLK 0
6 *17:17 *1462:A 0
7 *17:17 *1463:A 0
8 *17:17 *268:74 0
9 io_out[3] *17:17 0
10 io_out[4] *17:17 0
11 *1400:D *17:17 0
*RES
1 *1273:Y *17:17 49.3714 
2 *17:17 *1401:D 10.1571 
*END

*D_NET *18 0.000390127
*CONN
*I *1402:D I *D sky130_fd_sc_hd__dfxtp_1
*I *1275:Y O *D sky130_fd_sc_hd__nand2_1
*CAP
1 *1402:D 0.000195064
2 *1275:Y 0.000195064
3 *1402:D *1275:B 0
4 *1402:D *268:74 0
5 io_out[4] *1402:D 0
*RES
1 *1275:Y *1402:D 40.9973 
*END

*D_NET *19 0.00108254
*CONN
*I *1397:D I *D sky130_fd_sc_hd__dfxtp_1
*I *1276:Y O *D sky130_fd_sc_hd__nand2_1
*CAP
1 *1397:D 0.00054127
2 *1276:Y 0.00054127
3 *1397:D *1276:A 0
4 *1397:D *1397:CLK 0
5 *1397:D *1460:A 0
6 *1397:D *320:9 0
*RES
1 *1276:Y *1397:D 48.283 
*END

*D_NET *20 0.000394814
*CONN
*I *1403:D I *D sky130_fd_sc_hd__dfxtp_1
*I *1278:Y O *D sky130_fd_sc_hd__nor2_1
*CAP
1 *1403:D 0.000197407
2 *1278:Y 0.000197407
3 *1403:D *267:8 0
4 *1403:D *267:63 0
5 *1403:D *267:75 0
6 *1403:D *314:8 0
*RES
1 *1278:Y *1403:D 41.5286 
*END

*D_NET *21 0.000322282
*CONN
*I *1404:D I *D sky130_fd_sc_hd__dfxtp_1
*I *1281:X O *D sky130_fd_sc_hd__o21a_1
*CAP
1 *1404:D 0.000161141
2 *1281:X 0.000161141
3 *1404:D *1281:B1 0
*RES
1 *1281:X *1404:D 40.35 
*END

*D_NET *22 0.00119659
*CONN
*I *1405:D I *D sky130_fd_sc_hd__dfxtp_1
*I *1284:Y O *D sky130_fd_sc_hd__nor2_1
*CAP
1 *1405:D 0.000598296
2 *1284:Y 0.000598296
3 *1405:D *339:DIODE 0
4 *1405:D *1283:B1 0
5 *1405:D *1284:B 0
6 *1405:D *267:85 0
7 *1405:D *315:41 0
8 *1405:D *316:7 0
9 *1405:D *316:11 0
*RES
1 *1284:Y *1405:D 31.0866 
*END

*D_NET *23 0.000458647
*CONN
*I *1406:D I *D sky130_fd_sc_hd__dfxtp_1
*I *1285:X O *D sky130_fd_sc_hd__a211o_1
*CAP
1 *1406:D 0.000229323
2 *1285:X 0.000229323
3 *1406:D *1464:A 0
4 *1406:D *191:79 0
5 *1406:D *268:60 0
6 io_out[5] *1406:D 0
*RES
1 *1285:X *1406:D 42.2652 
*END

*D_NET *24 0.000236317
*CONN
*I *1407:D I *D sky130_fd_sc_hd__dfxtp_1
*I *1288:X O *D sky130_fd_sc_hd__o21a_1
*CAP
1 *1407:D 0.000118159
2 *1288:X 0.000118159
3 *1407:D *1422:CLK 0
*RES
1 *1288:X *1407:D 39.4036 
*END

*D_NET *25 0.000999914
*CONN
*I *1408:D I *D sky130_fd_sc_hd__dfxtp_1
*I *1291:Y O *D sky130_fd_sc_hd__nor3_1
*CAP
1 *1408:D 0.000499957
2 *1291:Y 0.000499957
3 *1408:D *1230:A1 0
4 *1408:D *1259:A 0
5 *1408:D *1291:C 0
6 *1408:D *198:13 0
*RES
1 *1291:Y *1408:D 48.8679 
*END

*D_NET *26 0.000452799
*CONN
*I *1409:D I *D sky130_fd_sc_hd__dfxtp_1
*I *1295:X O *D sky130_fd_sc_hd__o21a_1
*CAP
1 *1409:D 0.0002264
2 *1295:X 0.0002264
3 *1409:D *1294:B 0
4 *1409:D *1295:A2 0
5 *1409:D *1295:B1 0
6 *1409:D *199:10 0
7 *1409:D *201:8 0
*RES
1 *1295:X *1409:D 41.7116 
*END
