*SPEF "ieee 1481-1999"
*DESIGN "tt2_tholin_namebadge"
*DATE "11:11:11 Fri 11 11, 1111"
*VENDOR "OpenRCX"
*PROGRAM "Parallel Extraction"
*VERSION "1.0"
*DESIGN_FLOW "NAME_SCOPE LOCAL" "PIN_CAP NONE"
*DIVIDER /
*DELIMITER :
*BUS_DELIMITER []
*T_UNIT 1 NS
*C_UNIT 1 PF
*R_UNIT 1 OHM
*L_UNIT 1 HENRY

*NAME_MAP
*1 clk
*2 io_in[0]
*3 io_in[1]
*4 io_in[2]
*5 net47
*6 net57
*7 net58
*8 net59
*9 net60
*10 net61
*11 net62
*12 net63
*13 net64
*14 net65
*15 net66
*16 net48
*17 net67
*18 net68
*19 net69
*20 net70
*21 net71
*22 net72
*23 net73
*24 net49
*25 net50
*26 net51
*27 net52
*28 net53
*29 net54
*30 net55
*31 net56
*32 io_out[0]
*33 io_out[1]
*34 io_out[2]
*35 io_out[3]
*36 io_out[4]
*37 io_out[5]
*38 io_out[6]
*39 io_out[7]
*40 rst
*43 _000_
*44 _001_
*45 _002_
*46 _003_
*47 _004_
*48 _005_
*49 _006_
*50 _007_
*51 _008_
*52 _009_
*53 _010_
*54 _011_
*55 _012_
*56 _013_
*57 _014_
*58 _015_
*59 _016_
*60 _017_
*61 _018_
*62 _019_
*63 _020_
*64 _021_
*65 _022_
*66 _023_
*67 _024_
*68 _025_
*69 _026_
*70 _027_
*71 _028_
*72 _029_
*73 _030_
*74 _031_
*75 _032_
*76 _033_
*77 _034_
*78 _035_
*79 _036_
*80 _037_
*81 _038_
*82 _039_
*83 _040_
*84 _041_
*85 _042_
*86 _043_
*87 _044_
*88 _045_
*89 _046_
*90 _047_
*91 _048_
*92 _049_
*93 _050_
*94 _051_
*95 _052_
*96 _053_
*97 _054_
*98 _055_
*99 _056_
*100 _057_
*101 _058_
*102 _059_
*103 _060_
*104 _061_
*105 _062_
*106 _063_
*107 _064_
*108 _065_
*109 _066_
*110 _067_
*111 _068_
*112 _069_
*113 _070_
*114 _071_
*115 _072_
*116 _073_
*117 _074_
*118 _075_
*119 _076_
*120 _077_
*121 _078_
*122 _079_
*123 _080_
*124 _081_
*125 _082_
*126 _083_
*127 _084_
*128 _085_
*129 _086_
*130 _087_
*131 _088_
*132 _089_
*133 _090_
*134 _091_
*135 _092_
*136 _093_
*137 _094_
*138 _095_
*139 _096_
*140 _097_
*141 _098_
*142 _099_
*143 _100_
*144 _101_
*145 _102_
*146 _103_
*147 _104_
*148 _105_
*149 _106_
*150 _107_
*151 _108_
*152 _109_
*153 _110_
*154 _111_
*155 _112_
*156 _113_
*157 _114_
*158 _115_
*159 _116_
*160 _117_
*161 _118_
*162 _119_
*163 _120_
*164 _121_
*165 _122_
*166 _123_
*167 _124_
*168 _125_
*169 _126_
*170 _127_
*171 _128_
*172 _129_
*173 _130_
*174 _131_
*175 _132_
*176 _133_
*177 _134_
*178 _135_
*179 _136_
*180 _137_
*181 _138_
*182 _139_
*183 _140_
*184 _141_
*185 _142_
*186 _143_
*187 _144_
*188 _145_
*189 _146_
*190 _147_
*191 _148_
*192 _149_
*193 _150_
*194 _151_
*195 _152_
*196 _153_
*197 _154_
*198 _155_
*199 _156_
*200 _157_
*201 _158_
*202 _159_
*203 _160_
*204 _161_
*205 _162_
*206 _163_
*207 _164_
*208 _165_
*209 _166_
*210 _167_
*211 _168_
*212 _169_
*213 _170_
*214 _171_
*215 _172_
*216 _173_
*217 _174_
*218 _175_
*219 _176_
*220 _177_
*221 _178_
*222 _179_
*223 _180_
*224 _181_
*225 _182_
*226 _183_
*227 _184_
*228 _185_
*229 _186_
*230 _187_
*231 _188_
*232 _189_
*233 _190_
*234 _191_
*235 _192_
*236 _193_
*237 _194_
*238 _195_
*239 _196_
*240 _197_
*241 _198_
*242 _199_
*243 _200_
*244 _201_
*245 _202_
*246 _203_
*247 _204_
*248 _205_
*249 _206_
*250 _207_
*251 _208_
*252 _209_
*253 _210_
*254 _211_
*255 _212_
*256 _213_
*257 _214_
*258 _215_
*259 _216_
*260 _217_
*261 _218_
*262 _219_
*263 _220_
*264 _221_
*265 _222_
*266 _223_
*267 _224_
*268 _225_
*269 _226_
*270 _227_
*271 _228_
*272 _229_
*273 _230_
*274 _231_
*275 _232_
*276 _233_
*277 _234_
*278 _235_
*279 _236_
*280 _237_
*281 _238_
*282 _239_
*283 _240_
*284 _241_
*285 _242_
*286 _243_
*287 _244_
*288 _245_
*289 _246_
*290 _247_
*291 _248_
*292 _249_
*293 _250_
*294 _251_
*295 _252_
*296 _253_
*297 _254_
*298 _255_
*299 _256_
*300 _257_
*301 _258_
*302 _259_
*303 _260_
*304 _261_
*305 _262_
*306 _263_
*307 _264_
*308 _265_
*309 _266_
*310 _267_
*311 _268_
*312 _269_
*313 _270_
*314 _271_
*315 _272_
*316 _273_
*317 _274_
*318 _275_
*319 _276_
*320 _277_
*321 _278_
*322 _279_
*323 _280_
*324 _281_
*325 _282_
*326 _283_
*327 _284_
*328 _285_
*329 _286_
*330 _287_
*331 _288_
*332 _289_
*333 _290_
*334 _291_
*335 _292_
*336 _293_
*337 _294_
*338 _295_
*339 _296_
*340 _297_
*341 _298_
*342 _299_
*343 _300_
*344 _301_
*345 _302_
*346 _303_
*347 _304_
*348 _305_
*349 _306_
*350 _307_
*351 _308_
*352 _309_
*353 _310_
*354 _311_
*355 _312_
*356 _313_
*357 _314_
*358 _315_
*359 _316_
*360 _317_
*361 _318_
*362 _319_
*363 _320_
*364 _321_
*365 _322_
*366 _323_
*367 _324_
*368 _325_
*369 _326_
*370 _327_
*371 _328_
*372 _329_
*373 _330_
*374 _331_
*375 _332_
*376 _333_
*377 _334_
*378 _335_
*379 _336_
*380 _337_
*381 _338_
*382 _339_
*383 _340_
*384 _341_
*385 _342_
*386 _343_
*387 _344_
*388 _345_
*389 _346_
*390 _347_
*391 _348_
*392 _349_
*393 _350_
*394 _351_
*395 _352_
*396 _353_
*397 _354_
*398 _355_
*399 _356_
*400 _357_
*401 _358_
*402 _359_
*403 _360_
*404 _361_
*405 _362_
*406 _363_
*407 _364_
*408 _365_
*409 _366_
*410 _367_
*411 _368_
*412 clknet_0_clk
*413 clknet_2_0__leaf_clk
*414 clknet_2_1__leaf_clk
*415 clknet_2_2__leaf_clk
*416 clknet_2_3__leaf_clk
*417 lcd\.num_state\[0\]
*418 lcd\.num_state\[1\]
*419 lcd\.rom_addr\[0\]
*420 lcd\.rom_addr\[1\]
*421 lcd\.rom_addr\[3\]
*422 lcd\.rom_addr\[4\]
*423 lcd\.rom_addr\[5\]
*424 lcd\.rom_addr\[6\]
*425 lcd\.round\[0\]
*426 lcd\.round\[1\]
*427 lcd\.s_ROM\[0\]
*428 lcd\.s_ROM\[1\]
*429 lcd\.s_ROM\[2\]
*430 lcd\.s_ROM\[3\]
*431 lcd\.s_ROM\[4\]
*432 lcd\.s_ROM\[5\]
*433 lcd\.s_ROM\[6\]
*434 lcd\.seq\[0\]
*435 lcd\.seq\[1\]
*436 lcd\.seq\[2\]
*437 lcd\.seq\[3\]
*438 lcd\.seq\[4\]
*439 lcd\.seq\[5\]
*440 lcd\.seq\[6\]
*441 lcd\.seq\[7\]
*442 lcd\.toggle
*443 net1
*444 net10
*445 net11
*446 net12
*447 net13
*448 net14
*449 net15
*450 net16
*451 net17
*452 net18
*453 net19
*454 net2
*455 net20
*456 net21
*457 net22
*458 net23
*459 net24
*460 net25
*461 net26
*462 net27
*463 net28
*464 net29
*465 net3
*466 net30
*467 net31
*468 net32
*469 net33
*470 net34
*471 net35
*472 net36
*473 net37
*474 net38
*475 net39
*476 net4
*477 net40
*478 net41
*479 net42
*480 net43
*481 net44
*482 net45
*483 net46
*484 net5
*485 net6
*486 net7
*487 net8
*488 net9
*489 ANTENNA__372__A
*490 ANTENNA__374__A
*491 ANTENNA__375__A
*492 ANTENNA__386__A
*493 ANTENNA__390__C
*494 ANTENNA__391__A
*495 ANTENNA__399__A
*496 ANTENNA__399__B
*497 ANTENNA__404__D
*498 ANTENNA__405__A
*499 ANTENNA__406__A0
*500 ANTENNA__408__A2
*501 ANTENNA__409__A2
*502 ANTENNA__422__A2
*503 ANTENNA__427__B1
*504 ANTENNA__430__A
*505 ANTENNA__435__A
*506 ANTENNA__437__B1
*507 ANTENNA__438__B1
*508 ANTENNA__441__A
*509 ANTENNA__444__A
*510 ANTENNA__446__A
*511 ANTENNA__449__B1
*512 ANTENNA__450__A1
*513 ANTENNA__450__B1
*514 ANTENNA__451__A1
*515 ANTENNA__451__B1
*516 ANTENNA__458__A1
*517 ANTENNA__463__B1
*518 ANTENNA__466__A
*519 ANTENNA__467__B
*520 ANTENNA__471__A
*521 ANTENNA__480__B
*522 ANTENNA__484__A
*523 ANTENNA__486__A
*524 ANTENNA__493__A
*525 ANTENNA__494__A
*526 ANTENNA__494__B
*527 ANTENNA__497__A1
*528 ANTENNA__497__A2
*529 ANTENNA__497__B1
*530 ANTENNA__498__A
*531 ANTENNA__498__B
*532 ANTENNA__503__A
*533 ANTENNA__506__A2
*534 ANTENNA__510__C
*535 ANTENNA__513__A1
*536 ANTENNA__514__B
*537 ANTENNA__515__A2
*538 ANTENNA__517__A
*539 ANTENNA__521__B1
*540 ANTENNA__521__C1
*541 ANTENNA__523__A
*542 ANTENNA__524__A
*543 ANTENNA__526__A2
*544 ANTENNA__529__S
*545 ANTENNA__535__A2
*546 ANTENNA__535__B2
*547 ANTENNA__537__C1
*548 ANTENNA__539__A1
*549 ANTENNA__539__B1
*550 ANTENNA__540__A3
*551 ANTENNA__541__A
*552 ANTENNA__541__B
*553 ANTENNA__546__C1
*554 ANTENNA__553__A2
*555 ANTENNA__555__B1
*556 ANTENNA__557__A1
*557 ANTENNA__557__C1
*558 ANTENNA__560__A1
*559 ANTENNA__560__C1
*560 ANTENNA__564__B
*561 ANTENNA__565__A
*562 ANTENNA__566__A
*563 ANTENNA__567__B1
*564 ANTENNA__568__A1
*565 ANTENNA__573__A
*566 ANTENNA__573__B
*567 ANTENNA__574__A1
*568 ANTENNA__577__A
*569 ANTENNA__579__A1
*570 ANTENNA__583__A
*571 ANTENNA__584__A
*572 ANTENNA__587__B1
*573 ANTENNA__590__C1
*574 ANTENNA__591__A1
*575 ANTENNA__591__C1
*576 ANTENNA__593__A
*577 ANTENNA__595__A
*578 ANTENNA__598__C1
*579 ANTENNA__599__A1
*580 ANTENNA__601__C1
*581 ANTENNA__602__A1
*582 ANTENNA__603__B1
*583 ANTENNA__605__B1
*584 ANTENNA__608__B2
*585 ANTENNA__610__A
*586 ANTENNA__612__B2
*587 ANTENNA__617__A1
*588 ANTENNA__622__A2
*589 ANTENNA__622__B1
*590 ANTENNA__624__A1
*591 ANTENNA__624__B1
*592 ANTENNA__629__A1
*593 ANTENNA__630__S
*594 ANTENNA__641__A1_N
*595 ANTENNA__647__B1
*596 ANTENNA__660__A
*597 ANTENNA__661__B2
*598 ANTENNA__662__S
*599 ANTENNA__667__A1
*600 ANTENNA__667__A2
*601 ANTENNA__669__C1
*602 ANTENNA__672__A1
*603 ANTENNA__673__A1
*604 ANTENNA__674__A1
*605 ANTENNA__675__S
*606 ANTENNA__678__A
*607 ANTENNA__678__B
*608 ANTENNA__679__A1
*609 ANTENNA__680__A
*610 ANTENNA__681__C1
*611 ANTENNA__687__A1
*612 ANTENNA__693__A1
*613 ANTENNA__699__A1
*614 ANTENNA__700__A1
*615 ANTENNA__702__A1
*616 ANTENNA__703__B2
*617 ANTENNA__707__B1
*618 ANTENNA__712__A
*619 ANTENNA__716__A3
*620 ANTENNA__722__A3
*621 ANTENNA__729__A1
*622 ANTENNA__732__S
*623 ANTENNA__746__D
*624 ANTENNA__748__D
*625 ANTENNA__749__D
*626 ANTENNA__750__D
*627 ANTENNA__751__D
*628 ANTENNA__752__D
*629 ANTENNA__798__A
*630 ANTENNA_clkbuf_0_clk_A
*631 ANTENNA_fanout16_A
*632 ANTENNA_fanout17_A
*633 ANTENNA_fanout20_A
*634 ANTENNA_fanout24_A
*635 ANTENNA_fanout31_A
*636 ANTENNA_input1_A
*637 ANTENNA_input2_A
*638 ANTENNA_input3_A
*639 ANTENNA_input4_A
*640 ANTENNA_output10_A
*641 ANTENNA_output11_A
*642 ANTENNA_output12_A
*643 ANTENNA_output6_A
*644 ANTENNA_output8_A
*645 FILLER_0_103
*646 FILLER_0_110
*647 FILLER_0_113
*648 FILLER_0_120
*649 FILLER_0_127
*650 FILLER_0_134
*651 FILLER_0_141
*652 FILLER_0_146
*653 FILLER_0_154
*654 FILLER_0_16
*655 FILLER_0_161
*656 FILLER_0_167
*657 FILLER_0_169
*658 FILLER_0_178
*659 FILLER_0_185
*660 FILLER_0_192
*661 FILLER_0_197
*662 FILLER_0_202
*663 FILLER_0_209
*664 FILLER_0_216
*665 FILLER_0_225
*666 FILLER_0_230
*667 FILLER_0_237
*668 FILLER_0_243
*669 FILLER_0_26
*670 FILLER_0_29
*671 FILLER_0_3
*672 FILLER_0_42
*673 FILLER_0_46
*674 FILLER_0_53
*675 FILLER_0_57
*676 FILLER_0_65
*677 FILLER_0_71
*678 FILLER_0_80
*679 FILLER_0_85
*680 FILLER_0_89
*681 FILLER_0_9
*682 FILLER_0_96
*683 FILLER_10_109
*684 FILLER_10_113
*685 FILLER_10_121
*686 FILLER_10_131
*687 FILLER_10_135
*688 FILLER_10_138
*689 FILLER_10_14
*690 FILLER_10_141
*691 FILLER_10_148
*692 FILLER_10_154
*693 FILLER_10_163
*694 FILLER_10_184
*695 FILLER_10_193
*696 FILLER_10_197
*697 FILLER_10_208
*698 FILLER_10_218
*699 FILLER_10_226
*700 FILLER_10_231
*701 FILLER_10_237
*702 FILLER_10_24
*703 FILLER_10_243
*704 FILLER_10_29
*705 FILLER_10_3
*706 FILLER_10_33
*707 FILLER_10_41
*708 FILLER_10_51
*709 FILLER_10_55
*710 FILLER_10_67
*711 FILLER_10_71
*712 FILLER_10_77
*713 FILLER_10_83
*714 FILLER_10_85
*715 FILLER_10_94
*716 FILLER_11_102
*717 FILLER_11_106
*718 FILLER_11_110
*719 FILLER_11_113
*720 FILLER_11_117
*721 FILLER_11_125
*722 FILLER_11_131
*723 FILLER_11_149
*724 FILLER_11_160
*725 FILLER_11_166
*726 FILLER_11_169
*727 FILLER_11_17
*728 FILLER_11_173
*729 FILLER_11_193
*730 FILLER_11_200
*731 FILLER_11_212
*732 FILLER_11_218
*733 FILLER_11_225
*734 FILLER_11_235
*735 FILLER_11_243
*736 FILLER_11_28
*737 FILLER_11_3
*738 FILLER_11_40
*739 FILLER_11_46
*740 FILLER_11_52
*741 FILLER_11_57
*742 FILLER_11_68
*743 FILLER_11_7
*744 FILLER_11_80
*745 FILLER_11_88
*746 FILLER_11_91
*747 FILLER_12_106
*748 FILLER_12_109
*749 FILLER_12_11
*750 FILLER_12_120
*751 FILLER_12_127
*752 FILLER_12_138
*753 FILLER_12_141
*754 FILLER_12_157
*755 FILLER_12_163
*756 FILLER_12_176
*757 FILLER_12_187
*758 FILLER_12_193
*759 FILLER_12_197
*760 FILLER_12_201
*761 FILLER_12_205
*762 FILLER_12_21
*763 FILLER_12_213
*764 FILLER_12_224
*765 FILLER_12_236
*766 FILLER_12_242
*767 FILLER_12_27
*768 FILLER_12_29
*769 FILLER_12_3
*770 FILLER_12_37
*771 FILLER_12_47
*772 FILLER_12_55
*773 FILLER_12_65
*774 FILLER_12_7
*775 FILLER_12_77
*776 FILLER_12_83
*777 FILLER_12_85
*778 FILLER_12_98
*779 FILLER_13_104
*780 FILLER_13_113
*781 FILLER_13_118
*782 FILLER_13_138
*783 FILLER_13_147
*784 FILLER_13_156
*785 FILLER_13_162
*786 FILLER_13_169
*787 FILLER_13_17
*788 FILLER_13_180
*789 FILLER_13_189
*790 FILLER_13_201
*791 FILLER_13_210
*792 FILLER_13_216
*793 FILLER_13_225
*794 FILLER_13_233
*795 FILLER_13_24
*796 FILLER_13_241
*797 FILLER_13_28
*798 FILLER_13_3
*799 FILLER_13_31
*800 FILLER_13_37
*801 FILLER_13_49
*802 FILLER_13_55
*803 FILLER_13_57
*804 FILLER_13_63
*805 FILLER_13_7
*806 FILLER_13_70
*807 FILLER_13_83
*808 FILLER_13_95
*809 FILLER_14_101
*810 FILLER_14_127
*811 FILLER_14_13
*812 FILLER_14_133
*813 FILLER_14_139
*814 FILLER_14_141
*815 FILLER_14_152
*816 FILLER_14_161
*817 FILLER_14_165
*818 FILLER_14_173
*819 FILLER_14_179
*820 FILLER_14_183
*821 FILLER_14_19
*822 FILLER_14_193
*823 FILLER_14_197
*824 FILLER_14_212
*825 FILLER_14_224
*826 FILLER_14_236
*827 FILLER_14_25
*828 FILLER_14_29
*829 FILLER_14_3
*830 FILLER_14_38
*831 FILLER_14_49
*832 FILLER_14_58
*833 FILLER_14_64
*834 FILLER_14_7
*835 FILLER_14_70
*836 FILLER_14_78
*837 FILLER_14_82
*838 FILLER_14_85
*839 FILLER_14_95
*840 FILLER_15_104
*841 FILLER_15_110
*842 FILLER_15_113
*843 FILLER_15_122
*844 FILLER_15_13
*845 FILLER_15_137
*846 FILLER_15_149
*847 FILLER_15_162
*848 FILLER_15_169
*849 FILLER_15_179
*850 FILLER_15_194
*851 FILLER_15_200
*852 FILLER_15_212
*853 FILLER_15_22
*854 FILLER_15_222
*855 FILLER_15_225
*856 FILLER_15_234
*857 FILLER_15_242
*858 FILLER_15_28
*859 FILLER_15_3
*860 FILLER_15_38
*861 FILLER_15_46
*862 FILLER_15_54
*863 FILLER_15_57
*864 FILLER_15_68
*865 FILLER_15_75
*866 FILLER_15_83
*867 FILLER_15_89
*868 FILLER_15_98
*869 FILLER_16_111
*870 FILLER_16_120
*871 FILLER_16_126
*872 FILLER_16_132
*873 FILLER_16_138
*874 FILLER_16_141
*875 FILLER_16_145
*876 FILLER_16_157
*877 FILLER_16_166
*878 FILLER_16_170
*879 FILLER_16_178
*880 FILLER_16_184
*881 FILLER_16_192
*882 FILLER_16_197
*883 FILLER_16_207
*884 FILLER_16_219
*885 FILLER_16_227
*886 FILLER_16_238
*887 FILLER_16_24
*888 FILLER_16_29
*889 FILLER_16_3
*890 FILLER_16_38
*891 FILLER_16_50
*892 FILLER_16_80
*893 FILLER_16_85
*894 FILLER_16_93
*895 FILLER_16_99
*896 FILLER_17_107
*897 FILLER_17_111
*898 FILLER_17_113
*899 FILLER_17_127
*900 FILLER_17_145
*901 FILLER_17_15
*902 FILLER_17_159
*903 FILLER_17_165
*904 FILLER_17_169
*905 FILLER_17_178
*906 FILLER_17_184
*907 FILLER_17_190
*908 FILLER_17_200
*909 FILLER_17_212
*910 FILLER_17_218
*911 FILLER_17_225
*912 FILLER_17_231
*913 FILLER_17_237
*914 FILLER_17_243
*915 FILLER_17_27
*916 FILLER_17_3
*917 FILLER_17_36
*918 FILLER_17_52
*919 FILLER_17_57
*920 FILLER_17_67
*921 FILLER_17_77
*922 FILLER_17_89
*923 FILLER_17_93
*924 FILLER_18_10
*925 FILLER_18_107
*926 FILLER_18_113
*927 FILLER_18_126
*928 FILLER_18_137
*929 FILLER_18_141
*930 FILLER_18_150
*931 FILLER_18_163
*932 FILLER_18_175
*933 FILLER_18_186
*934 FILLER_18_19
*935 FILLER_18_194
*936 FILLER_18_197
*937 FILLER_18_201
*938 FILLER_18_210
*939 FILLER_18_216
*940 FILLER_18_225
*941 FILLER_18_234
*942 FILLER_18_241
*943 FILLER_18_27
*944 FILLER_18_29
*945 FILLER_18_3
*946 FILLER_18_37
*947 FILLER_18_43
*948 FILLER_18_55
*949 FILLER_18_58
*950 FILLER_18_64
*951 FILLER_18_71
*952 FILLER_18_82
*953 FILLER_18_85
*954 FILLER_18_96
*955 FILLER_19_107
*956 FILLER_19_111
*957 FILLER_19_113
*958 FILLER_19_122
*959 FILLER_19_131
*960 FILLER_19_14
*961 FILLER_19_144
*962 FILLER_19_151
*963 FILLER_19_155
*964 FILLER_19_161
*965 FILLER_19_167
*966 FILLER_19_169
*967 FILLER_19_179
*968 FILLER_19_194
*969 FILLER_19_200
*970 FILLER_19_212
*971 FILLER_19_22
*972 FILLER_19_225
*973 FILLER_19_233
*974 FILLER_19_239
*975 FILLER_19_243
*976 FILLER_19_3
*977 FILLER_19_34
*978 FILLER_19_40
*979 FILLER_19_49
*980 FILLER_19_55
*981 FILLER_19_57
*982 FILLER_19_65
*983 FILLER_19_7
*984 FILLER_19_77
*985 FILLER_19_85
*986 FILLER_19_91
*987 FILLER_1_106
*988 FILLER_1_113
*989 FILLER_1_124
*990 FILLER_1_128
*991 FILLER_1_135
*992 FILLER_1_141
*993 FILLER_1_163
*994 FILLER_1_167
*995 FILLER_1_169
*996 FILLER_1_179
*997 FILLER_1_183
*998 FILLER_1_206
*999 FILLER_1_21
*1000 FILLER_1_215
*1001 FILLER_1_222
*1002 FILLER_1_225
*1003 FILLER_1_230
*1004 FILLER_1_237
*1005 FILLER_1_243
*1006 FILLER_1_3
*1007 FILLER_1_37
*1008 FILLER_1_50
*1009 FILLER_1_57
*1010 FILLER_1_72
*1011 FILLER_1_8
*1012 FILLER_1_80
*1013 FILLER_1_93
*1014 FILLER_1_99
*1015 FILLER_20_107
*1016 FILLER_20_11
*1017 FILLER_20_119
*1018 FILLER_20_123
*1019 FILLER_20_128
*1020 FILLER_20_138
*1021 FILLER_20_141
*1022 FILLER_20_150
*1023 FILLER_20_156
*1024 FILLER_20_162
*1025 FILLER_20_172
*1026 FILLER_20_184
*1027 FILLER_20_19
*1028 FILLER_20_197
*1029 FILLER_20_206
*1030 FILLER_20_214
*1031 FILLER_20_222
*1032 FILLER_20_232
*1033 FILLER_20_238
*1034 FILLER_20_26
*1035 FILLER_20_29
*1036 FILLER_20_3
*1037 FILLER_20_35
*1038 FILLER_20_48
*1039 FILLER_20_57
*1040 FILLER_20_63
*1041 FILLER_20_67
*1042 FILLER_20_71
*1043 FILLER_20_82
*1044 FILLER_20_85
*1045 FILLER_20_98
*1046 FILLER_21_104
*1047 FILLER_21_110
*1048 FILLER_21_113
*1049 FILLER_21_118
*1050 FILLER_21_126
*1051 FILLER_21_129
*1052 FILLER_21_147
*1053 FILLER_21_15
*1054 FILLER_21_153
*1055 FILLER_21_159
*1056 FILLER_21_165
*1057 FILLER_21_169
*1058 FILLER_21_178
*1059 FILLER_21_190
*1060 FILLER_21_202
*1061 FILLER_21_211
*1062 FILLER_21_222
*1063 FILLER_21_225
*1064 FILLER_21_236
*1065 FILLER_21_3
*1066 FILLER_21_35
*1067 FILLER_21_41
*1068 FILLER_21_54
*1069 FILLER_21_57
*1070 FILLER_21_67
*1071 FILLER_21_75
*1072 FILLER_21_92
*1073 FILLER_22_109
*1074 FILLER_22_127
*1075 FILLER_22_135
*1076 FILLER_22_138
*1077 FILLER_22_14
*1078 FILLER_22_141
*1079 FILLER_22_145
*1080 FILLER_22_151
*1081 FILLER_22_157
*1082 FILLER_22_162
*1083 FILLER_22_174
*1084 FILLER_22_186
*1085 FILLER_22_191
*1086 FILLER_22_195
*1087 FILLER_22_197
*1088 FILLER_22_207
*1089 FILLER_22_217
*1090 FILLER_22_231
*1091 FILLER_22_238
*1092 FILLER_22_26
*1093 FILLER_22_29
*1094 FILLER_22_3
*1095 FILLER_22_38
*1096 FILLER_22_42
*1097 FILLER_22_50
*1098 FILLER_22_61
*1099 FILLER_22_69
*1100 FILLER_22_78
*1101 FILLER_22_85
*1102 FILLER_22_94
*1103 FILLER_23_103
*1104 FILLER_23_111
*1105 FILLER_23_113
*1106 FILLER_23_124
*1107 FILLER_23_136
*1108 FILLER_23_142
*1109 FILLER_23_15
*1110 FILLER_23_150
*1111 FILLER_23_158
*1112 FILLER_23_166
*1113 FILLER_23_169
*1114 FILLER_23_178
*1115 FILLER_23_189
*1116 FILLER_23_202
*1117 FILLER_23_216
*1118 FILLER_23_222
*1119 FILLER_23_225
*1120 FILLER_23_237
*1121 FILLER_23_243
*1122 FILLER_23_3
*1123 FILLER_23_40
*1124 FILLER_23_54
*1125 FILLER_23_57
*1126 FILLER_23_63
*1127 FILLER_23_69
*1128 FILLER_23_7
*1129 FILLER_23_81
*1130 FILLER_24_104
*1131 FILLER_24_110
*1132 FILLER_24_114
*1133 FILLER_24_117
*1134 FILLER_24_127
*1135 FILLER_24_138
*1136 FILLER_24_141
*1137 FILLER_24_15
*1138 FILLER_24_154
*1139 FILLER_24_164
*1140 FILLER_24_172
*1141 FILLER_24_181
*1142 FILLER_24_194
*1143 FILLER_24_197
*1144 FILLER_24_206
*1145 FILLER_24_214
*1146 FILLER_24_221
*1147 FILLER_24_231
*1148 FILLER_24_243
*1149 FILLER_24_27
*1150 FILLER_24_29
*1151 FILLER_24_3
*1152 FILLER_24_41
*1153 FILLER_24_51
*1154 FILLER_24_59
*1155 FILLER_24_77
*1156 FILLER_24_83
*1157 FILLER_24_85
*1158 FILLER_25_105
*1159 FILLER_25_111
*1160 FILLER_25_113
*1161 FILLER_25_119
*1162 FILLER_25_142
*1163 FILLER_25_148
*1164 FILLER_25_15
*1165 FILLER_25_154
*1166 FILLER_25_162
*1167 FILLER_25_169
*1168 FILLER_25_175
*1169 FILLER_25_182
*1170 FILLER_25_190
*1171 FILLER_25_194
*1172 FILLER_25_197
*1173 FILLER_25_203
*1174 FILLER_25_214
*1175 FILLER_25_222
*1176 FILLER_25_225
*1177 FILLER_25_233
*1178 FILLER_25_239
*1179 FILLER_25_243
*1180 FILLER_25_3
*1181 FILLER_25_36
*1182 FILLER_25_48
*1183 FILLER_25_57
*1184 FILLER_25_69
*1185 FILLER_25_93
*1186 FILLER_26_106
*1187 FILLER_26_112
*1188 FILLER_26_120
*1189 FILLER_26_129
*1190 FILLER_26_135
*1191 FILLER_26_139
*1192 FILLER_26_141
*1193 FILLER_26_145
*1194 FILLER_26_151
*1195 FILLER_26_157
*1196 FILLER_26_163
*1197 FILLER_26_171
*1198 FILLER_26_179
*1199 FILLER_26_186
*1200 FILLER_26_194
*1201 FILLER_26_197
*1202 FILLER_26_207
*1203 FILLER_26_213
*1204 FILLER_26_225
*1205 FILLER_26_231
*1206 FILLER_26_243
*1207 FILLER_26_26
*1208 FILLER_26_29
*1209 FILLER_26_3
*1210 FILLER_26_47
*1211 FILLER_26_59
*1212 FILLER_26_79
*1213 FILLER_26_83
*1214 FILLER_26_85
*1215 FILLER_26_9
*1216 FILLER_27_108
*1217 FILLER_27_113
*1218 FILLER_27_123
*1219 FILLER_27_134
*1220 FILLER_27_141
*1221 FILLER_27_145
*1222 FILLER_27_15
*1223 FILLER_27_154
*1224 FILLER_27_160
*1225 FILLER_27_166
*1226 FILLER_27_169
*1227 FILLER_27_176
*1228 FILLER_27_188
*1229 FILLER_27_19
*1230 FILLER_27_196
*1231 FILLER_27_206
*1232 FILLER_27_216
*1233 FILLER_27_225
*1234 FILLER_27_233
*1235 FILLER_27_241
*1236 FILLER_27_3
*1237 FILLER_27_39
*1238 FILLER_27_51
*1239 FILLER_27_55
*1240 FILLER_27_57
*1241 FILLER_27_75
*1242 FILLER_27_79
*1243 FILLER_27_96
*1244 FILLER_28_103
*1245 FILLER_28_107
*1246 FILLER_28_110
*1247 FILLER_28_117
*1248 FILLER_28_127
*1249 FILLER_28_138
*1250 FILLER_28_141
*1251 FILLER_28_145
*1252 FILLER_28_15
*1253 FILLER_28_152
*1254 FILLER_28_162
*1255 FILLER_28_172
*1256 FILLER_28_181
*1257 FILLER_28_193
*1258 FILLER_28_197
*1259 FILLER_28_209
*1260 FILLER_28_223
*1261 FILLER_28_235
*1262 FILLER_28_243
*1263 FILLER_28_27
*1264 FILLER_28_29
*1265 FILLER_28_3
*1266 FILLER_28_41
*1267 FILLER_28_66
*1268 FILLER_28_78
*1269 FILLER_28_81
*1270 FILLER_28_85
*1271 FILLER_29_105
*1272 FILLER_29_111
*1273 FILLER_29_113
*1274 FILLER_29_126
*1275 FILLER_29_132
*1276 FILLER_29_142
*1277 FILLER_29_15
*1278 FILLER_29_154
*1279 FILLER_29_160
*1280 FILLER_29_166
*1281 FILLER_29_169
*1282 FILLER_29_178
*1283 FILLER_29_188
*1284 FILLER_29_196
*1285 FILLER_29_206
*1286 FILLER_29_218
*1287 FILLER_29_225
*1288 FILLER_29_237
*1289 FILLER_29_243
*1290 FILLER_29_3
*1291 FILLER_29_37
*1292 FILLER_29_49
*1293 FILLER_29_55
*1294 FILLER_29_57
*1295 FILLER_29_69
*1296 FILLER_29_93
*1297 FILLER_2_102
*1298 FILLER_2_114
*1299 FILLER_2_122
*1300 FILLER_2_131
*1301 FILLER_2_138
*1302 FILLER_2_141
*1303 FILLER_2_146
*1304 FILLER_2_153
*1305 FILLER_2_160
*1306 FILLER_2_167
*1307 FILLER_2_17
*1308 FILLER_2_173
*1309 FILLER_2_179
*1310 FILLER_2_185
*1311 FILLER_2_191
*1312 FILLER_2_194
*1313 FILLER_2_197
*1314 FILLER_2_208
*1315 FILLER_2_214
*1316 FILLER_2_226
*1317 FILLER_2_232
*1318 FILLER_2_239
*1319 FILLER_2_243
*1320 FILLER_2_26
*1321 FILLER_2_29
*1322 FILLER_2_3
*1323 FILLER_2_37
*1324 FILLER_2_55
*1325 FILLER_2_65
*1326 FILLER_2_7
*1327 FILLER_2_76
*1328 FILLER_2_82
*1329 FILLER_2_85
*1330 FILLER_2_92
*1331 FILLER_30_103
*1332 FILLER_30_115
*1333 FILLER_30_123
*1334 FILLER_30_133
*1335 FILLER_30_139
*1336 FILLER_30_141
*1337 FILLER_30_151
*1338 FILLER_30_157
*1339 FILLER_30_165
*1340 FILLER_30_172
*1341 FILLER_30_184
*1342 FILLER_30_194
*1343 FILLER_30_197
*1344 FILLER_30_207
*1345 FILLER_30_213
*1346 FILLER_30_225
*1347 FILLER_30_237
*1348 FILLER_30_243
*1349 FILLER_30_26
*1350 FILLER_30_29
*1351 FILLER_30_3
*1352 FILLER_30_41
*1353 FILLER_30_49
*1354 FILLER_30_53
*1355 FILLER_30_77
*1356 FILLER_30_83
*1357 FILLER_30_85
*1358 FILLER_30_9
*1359 FILLER_31_111
*1360 FILLER_31_113
*1361 FILLER_31_121
*1362 FILLER_31_130
*1363 FILLER_31_136
*1364 FILLER_31_144
*1365 FILLER_31_149
*1366 FILLER_31_15
*1367 FILLER_31_153
*1368 FILLER_31_156
*1369 FILLER_31_162
*1370 FILLER_31_169
*1371 FILLER_31_180
*1372 FILLER_31_19
*1373 FILLER_31_190
*1374 FILLER_31_204
*1375 FILLER_31_216
*1376 FILLER_31_225
*1377 FILLER_31_232
*1378 FILLER_31_3
*1379 FILLER_31_39
*1380 FILLER_31_51
*1381 FILLER_31_55
*1382 FILLER_31_57
*1383 FILLER_31_69
*1384 FILLER_31_93
*1385 FILLER_31_99
*1386 FILLER_32_106
*1387 FILLER_32_114
*1388 FILLER_32_126
*1389 FILLER_32_130
*1390 FILLER_32_135
*1391 FILLER_32_139
*1392 FILLER_32_141
*1393 FILLER_32_147
*1394 FILLER_32_153
*1395 FILLER_32_159
*1396 FILLER_32_171
*1397 FILLER_32_183
*1398 FILLER_32_195
*1399 FILLER_32_197
*1400 FILLER_32_205
*1401 FILLER_32_217
*1402 FILLER_32_229
*1403 FILLER_32_241
*1404 FILLER_32_26
*1405 FILLER_32_29
*1406 FILLER_32_3
*1407 FILLER_32_41
*1408 FILLER_32_45
*1409 FILLER_32_62
*1410 FILLER_32_82
*1411 FILLER_32_85
*1412 FILLER_32_9
*1413 FILLER_33_107
*1414 FILLER_33_110
*1415 FILLER_33_113
*1416 FILLER_33_119
*1417 FILLER_33_129
*1418 FILLER_33_139
*1419 FILLER_33_146
*1420 FILLER_33_15
*1421 FILLER_33_157
*1422 FILLER_33_163
*1423 FILLER_33_167
*1424 FILLER_33_169
*1425 FILLER_33_181
*1426 FILLER_33_193
*1427 FILLER_33_199
*1428 FILLER_33_208
*1429 FILLER_33_214
*1430 FILLER_33_222
*1431 FILLER_33_225
*1432 FILLER_33_230
*1433 FILLER_33_237
*1434 FILLER_33_243
*1435 FILLER_33_3
*1436 FILLER_33_36
*1437 FILLER_33_48
*1438 FILLER_33_57
*1439 FILLER_33_69
*1440 FILLER_33_93
*1441 FILLER_33_99
*1442 FILLER_34_103
*1443 FILLER_34_114
*1444 FILLER_34_121
*1445 FILLER_34_135
*1446 FILLER_34_139
*1447 FILLER_34_141
*1448 FILLER_34_145
*1449 FILLER_34_151
*1450 FILLER_34_165
*1451 FILLER_34_173
*1452 FILLER_34_182
*1453 FILLER_34_191
*1454 FILLER_34_195
*1455 FILLER_34_197
*1456 FILLER_34_206
*1457 FILLER_34_216
*1458 FILLER_34_224
*1459 FILLER_34_239
*1460 FILLER_34_243
*1461 FILLER_34_26
*1462 FILLER_34_29
*1463 FILLER_34_3
*1464 FILLER_34_41
*1465 FILLER_34_49
*1466 FILLER_34_67
*1467 FILLER_34_79
*1468 FILLER_34_82
*1469 FILLER_34_85
*1470 FILLER_35_107
*1471 FILLER_35_111
*1472 FILLER_35_113
*1473 FILLER_35_119
*1474 FILLER_35_127
*1475 FILLER_35_133
*1476 FILLER_35_143
*1477 FILLER_35_15
*1478 FILLER_35_150
*1479 FILLER_35_158
*1480 FILLER_35_166
*1481 FILLER_35_169
*1482 FILLER_35_173
*1483 FILLER_35_177
*1484 FILLER_35_186
*1485 FILLER_35_198
*1486 FILLER_35_202
*1487 FILLER_35_209
*1488 FILLER_35_218
*1489 FILLER_35_225
*1490 FILLER_35_229
*1491 FILLER_35_232
*1492 FILLER_35_3
*1493 FILLER_35_34
*1494 FILLER_35_54
*1495 FILLER_35_57
*1496 FILLER_35_75
*1497 FILLER_35_95
*1498 FILLER_36_109
*1499 FILLER_36_113
*1500 FILLER_36_117
*1501 FILLER_36_124
*1502 FILLER_36_132
*1503 FILLER_36_138
*1504 FILLER_36_141
*1505 FILLER_36_145
*1506 FILLER_36_153
*1507 FILLER_36_159
*1508 FILLER_36_167
*1509 FILLER_36_169
*1510 FILLER_36_174
*1511 FILLER_36_182
*1512 FILLER_36_194
*1513 FILLER_36_197
*1514 FILLER_36_209
*1515 FILLER_36_213
*1516 FILLER_36_221
*1517 FILLER_36_225
*1518 FILLER_36_231
*1519 FILLER_36_236
*1520 FILLER_36_26
*1521 FILLER_36_29
*1522 FILLER_36_3
*1523 FILLER_36_53
*1524 FILLER_36_57
*1525 FILLER_36_63
*1526 FILLER_36_66
*1527 FILLER_36_76
*1528 FILLER_36_85
*1529 FILLER_36_9
*1530 FILLER_36_97
*1531 FILLER_3_103
*1532 FILLER_3_110
*1533 FILLER_3_113
*1534 FILLER_3_117
*1535 FILLER_3_123
*1536 FILLER_3_13
*1537 FILLER_3_135
*1538 FILLER_3_138
*1539 FILLER_3_144
*1540 FILLER_3_154
*1541 FILLER_3_166
*1542 FILLER_3_169
*1543 FILLER_3_173
*1544 FILLER_3_181
*1545 FILLER_3_185
*1546 FILLER_3_206
*1547 FILLER_3_218
*1548 FILLER_3_225
*1549 FILLER_3_236
*1550 FILLER_3_24
*1551 FILLER_3_3
*1552 FILLER_3_32
*1553 FILLER_3_43
*1554 FILLER_3_54
*1555 FILLER_3_57
*1556 FILLER_3_69
*1557 FILLER_3_75
*1558 FILLER_3_79
*1559 FILLER_3_89
*1560 FILLER_3_96
*1561 FILLER_4_104
*1562 FILLER_4_110
*1563 FILLER_4_118
*1564 FILLER_4_125
*1565 FILLER_4_137
*1566 FILLER_4_141
*1567 FILLER_4_145
*1568 FILLER_4_15
*1569 FILLER_4_153
*1570 FILLER_4_162
*1571 FILLER_4_168
*1572 FILLER_4_183
*1573 FILLER_4_191
*1574 FILLER_4_194
*1575 FILLER_4_197
*1576 FILLER_4_204
*1577 FILLER_4_210
*1578 FILLER_4_216
*1579 FILLER_4_228
*1580 FILLER_4_239
*1581 FILLER_4_243
*1582 FILLER_4_25
*1583 FILLER_4_29
*1584 FILLER_4_3
*1585 FILLER_4_41
*1586 FILLER_4_52
*1587 FILLER_4_70
*1588 FILLER_4_77
*1589 FILLER_4_83
*1590 FILLER_4_85
*1591 FILLER_4_89
*1592 FILLER_4_98
*1593 FILLER_5_108
*1594 FILLER_5_113
*1595 FILLER_5_121
*1596 FILLER_5_130
*1597 FILLER_5_136
*1598 FILLER_5_146
*1599 FILLER_5_150
*1600 FILLER_5_159
*1601 FILLER_5_165
*1602 FILLER_5_169
*1603 FILLER_5_17
*1604 FILLER_5_173
*1605 FILLER_5_179
*1606 FILLER_5_192
*1607 FILLER_5_196
*1608 FILLER_5_204
*1609 FILLER_5_208
*1610 FILLER_5_212
*1611 FILLER_5_216
*1612 FILLER_5_222
*1613 FILLER_5_225
*1614 FILLER_5_231
*1615 FILLER_5_241
*1616 FILLER_5_29
*1617 FILLER_5_3
*1618 FILLER_5_44
*1619 FILLER_5_54
*1620 FILLER_5_57
*1621 FILLER_5_62
*1622 FILLER_5_70
*1623 FILLER_5_84
*1624 FILLER_5_9
*1625 FILLER_5_97
*1626 FILLER_6_104
*1627 FILLER_6_116
*1628 FILLER_6_129
*1629 FILLER_6_136
*1630 FILLER_6_141
*1631 FILLER_6_158
*1632 FILLER_6_164
*1633 FILLER_6_169
*1634 FILLER_6_18
*1635 FILLER_6_187
*1636 FILLER_6_195
*1637 FILLER_6_197
*1638 FILLER_6_202
*1639 FILLER_6_215
*1640 FILLER_6_22
*1641 FILLER_6_221
*1642 FILLER_6_231
*1643 FILLER_6_241
*1644 FILLER_6_26
*1645 FILLER_6_29
*1646 FILLER_6_3
*1647 FILLER_6_36
*1648 FILLER_6_56
*1649 FILLER_6_67
*1650 FILLER_6_7
*1651 FILLER_6_80
*1652 FILLER_6_85
*1653 FILLER_6_89
*1654 FILLER_6_97
*1655 FILLER_7_101
*1656 FILLER_7_109
*1657 FILLER_7_113
*1658 FILLER_7_117
*1659 FILLER_7_126
*1660 FILLER_7_132
*1661 FILLER_7_142
*1662 FILLER_7_146
*1663 FILLER_7_149
*1664 FILLER_7_161
*1665 FILLER_7_167
*1666 FILLER_7_169
*1667 FILLER_7_185
*1668 FILLER_7_198
*1669 FILLER_7_211
*1670 FILLER_7_215
*1671 FILLER_7_222
*1672 FILLER_7_225
*1673 FILLER_7_233
*1674 FILLER_7_242
*1675 FILLER_7_27
*1676 FILLER_7_3
*1677 FILLER_7_34
*1678 FILLER_7_47
*1679 FILLER_7_51
*1680 FILLER_7_54
*1681 FILLER_7_57
*1682 FILLER_7_62
*1683 FILLER_7_89
*1684 FILLER_7_9
*1685 FILLER_8_103
*1686 FILLER_8_111
*1687 FILLER_8_118
*1688 FILLER_8_130
*1689 FILLER_8_138
*1690 FILLER_8_141
*1691 FILLER_8_149
*1692 FILLER_8_155
*1693 FILLER_8_16
*1694 FILLER_8_167
*1695 FILLER_8_171
*1696 FILLER_8_175
*1697 FILLER_8_188
*1698 FILLER_8_194
*1699 FILLER_8_197
*1700 FILLER_8_213
*1701 FILLER_8_225
*1702 FILLER_8_236
*1703 FILLER_8_25
*1704 FILLER_8_29
*1705 FILLER_8_3
*1706 FILLER_8_41
*1707 FILLER_8_63
*1708 FILLER_8_67
*1709 FILLER_8_70
*1710 FILLER_8_82
*1711 FILLER_8_85
*1712 FILLER_8_89
*1713 FILLER_8_92
*1714 FILLER_9_101
*1715 FILLER_9_107
*1716 FILLER_9_11
*1717 FILLER_9_110
*1718 FILLER_9_113
*1719 FILLER_9_117
*1720 FILLER_9_121
*1721 FILLER_9_127
*1722 FILLER_9_139
*1723 FILLER_9_146
*1724 FILLER_9_157
*1725 FILLER_9_163
*1726 FILLER_9_167
*1727 FILLER_9_169
*1728 FILLER_9_180
*1729 FILLER_9_188
*1730 FILLER_9_207
*1731 FILLER_9_21
*1732 FILLER_9_219
*1733 FILLER_9_222
*1734 FILLER_9_225