*SPEF "ieee 1481-1999"
*DESIGN "tt2_tholin_multiplexed_counter"
*DATE "11:11:11 Fri 11 11, 1111"
*VENDOR "OpenRCX"
*PROGRAM "Parallel Extraction"
*VERSION "1.0"
*DESIGN_FLOW "NAME_SCOPE LOCAL" "PIN_CAP NONE"
*DIVIDER /
*DELIMITER :
*BUS_DELIMITER []
*T_UNIT 1 NS
*C_UNIT 1 PF
*R_UNIT 1 OHM
*L_UNIT 1 HENRY

*NAME_MAP
*1 clk
*2 io_out[0]
*3 io_out[10]
*4 io_out[11]
*5 io_out[1]
*6 io_out[2]
*7 io_out[3]
*8 io_out[4]
*9 io_out[5]
*10 io_out[6]
*11 io_out[7]
*12 io_out[8]
*13 io_out[9]
*14 rst
*17 CIRCUIT_1111\.MEMORY_2\.d
*18 CIRCUIT_1111\.MEMORY_2\.s_currentState
*19 CIRCUIT_1111\.MEMORY_3\.d
*20 CIRCUIT_1111\.MEMORY_3\.s_currentState
*21 CIRCUIT_1111\.MEMORY_4\.d
*22 CIRCUIT_1111\.MEMORY_6\.d
*23 CIRCUIT_1111\.MEMORY_6\.s_currentState
*24 CIRCUIT_1111\.MEMORY_7\.d
*25 CIRCUIT_1111\.MEMORY_7\.s_currentState
*26 CIRCUIT_1111\.custom_counter_10_1\.MEMORY_1\.d
*27 CIRCUIT_1111\.custom_counter_10_1\.MEMORY_1\.s_currentState
*28 CIRCUIT_1111\.custom_counter_10_1\.MEMORY_10\.clock
*29 CIRCUIT_1111\.custom_counter_10_1\.MEMORY_10\.d
*30 CIRCUIT_1111\.custom_counter_10_1\.MEMORY_10\.s_currentState
*31 CIRCUIT_1111\.custom_counter_10_1\.MEMORY_2\.d
*32 CIRCUIT_1111\.custom_counter_10_1\.MEMORY_2\.s_currentState
*33 CIRCUIT_1111\.custom_counter_10_1\.MEMORY_3\.d
*34 CIRCUIT_1111\.custom_counter_10_1\.MEMORY_3\.s_currentState
*35 CIRCUIT_1111\.custom_counter_10_1\.MEMORY_4\.d
*36 CIRCUIT_1111\.custom_counter_10_1\.MEMORY_4\.s_currentState
*37 CIRCUIT_1111\.custom_counter_10_1\.MEMORY_5\.d
*38 CIRCUIT_1111\.custom_counter_10_1\.MEMORY_5\.s_currentState
*39 CIRCUIT_1111\.custom_counter_10_1\.MEMORY_6\.d
*40 CIRCUIT_1111\.custom_counter_10_1\.MEMORY_6\.s_currentState
*41 CIRCUIT_1111\.custom_counter_10_1\.MEMORY_7\.clock
*42 CIRCUIT_1111\.custom_counter_10_1\.MEMORY_7\.d
*43 CIRCUIT_1111\.custom_counter_10_1\.MEMORY_7\.s_currentState
*44 CIRCUIT_1111\.custom_counter_10_1\.MEMORY_8\.s_currentState
*45 CIRCUIT_1111\.custom_counter_10_1\.MEMORY_9\.s_currentState
*46 CIRCUIT_1111\.full_counter_1\.ARITH_1\.aEqualsB
*47 CIRCUIT_1111\.full_counter_1\.ARITH_2\.aEqualsB
*48 CIRCUIT_1111\.full_counter_1\.MEMORY_3\.s_currentState
*49 CIRCUIT_1111\.full_counter_1\.MEMORY_6\.s_currentState
*50 CIRCUIT_1111\.full_counter_1\.custom_counter_4_1\.MEMORY_1\.d
*51 CIRCUIT_1111\.full_counter_1\.custom_counter_4_1\.MEMORY_1\.s_currentState
*52 CIRCUIT_1111\.full_counter_1\.custom_counter_4_1\.MEMORY_2\.d
*53 CIRCUIT_1111\.full_counter_1\.custom_counter_4_1\.MEMORY_2\.s_currentState
*54 CIRCUIT_1111\.full_counter_1\.custom_counter_4_1\.MEMORY_3\.d
*55 CIRCUIT_1111\.full_counter_1\.custom_counter_4_1\.MEMORY_3\.s_currentState
*56 CIRCUIT_1111\.full_counter_1\.custom_counter_4_1\.MEMORY_4\.d
*57 CIRCUIT_1111\.full_counter_1\.custom_counter_4_1\.MEMORY_4\.s_currentState
*58 CIRCUIT_1111\.full_counter_1\.custom_counter_4_2\.MEMORY_1\.d
*59 CIRCUIT_1111\.full_counter_1\.custom_counter_4_2\.MEMORY_1\.s_currentState
*60 CIRCUIT_1111\.full_counter_1\.custom_counter_4_2\.MEMORY_2\.d
*61 CIRCUIT_1111\.full_counter_1\.custom_counter_4_2\.MEMORY_2\.s_currentState
*62 CIRCUIT_1111\.full_counter_1\.custom_counter_4_2\.MEMORY_3\.d
*63 CIRCUIT_1111\.full_counter_1\.custom_counter_4_2\.MEMORY_3\.s_currentState
*64 CIRCUIT_1111\.full_counter_1\.custom_counter_4_2\.MEMORY_4\.d
*65 CIRCUIT_1111\.full_counter_1\.custom_counter_4_2\.MEMORY_4\.s_currentState
*66 CIRCUIT_1111\.full_counter_1\.seconds_counter_1\.ARITH_1\.aEqualsB
*67 CIRCUIT_1111\.full_counter_1\.seconds_counter_1\.ARITH_4\.aEqualsB
*68 CIRCUIT_1111\.full_counter_1\.seconds_counter_1\.MEMORY_5\.s_currentState
*69 CIRCUIT_1111\.full_counter_1\.seconds_counter_1\.MEMORY_6\.s_currentState
*70 CIRCUIT_1111\.full_counter_1\.seconds_counter_1\.custom_counter_4_1\.MEMORY_1\.d
*71 CIRCUIT_1111\.full_counter_1\.seconds_counter_1\.custom_counter_4_1\.MEMORY_1\.s_currentState
*72 CIRCUIT_1111\.full_counter_1\.seconds_counter_1\.custom_counter_4_1\.MEMORY_2\.d
*73 CIRCUIT_1111\.full_counter_1\.seconds_counter_1\.custom_counter_4_1\.MEMORY_2\.s_currentState
*74 CIRCUIT_1111\.full_counter_1\.seconds_counter_1\.custom_counter_4_1\.MEMORY_3\.d
*75 CIRCUIT_1111\.full_counter_1\.seconds_counter_1\.custom_counter_4_1\.MEMORY_3\.s_currentState
*76 CIRCUIT_1111\.full_counter_1\.seconds_counter_1\.custom_counter_4_1\.MEMORY_4\.d
*77 CIRCUIT_1111\.full_counter_1\.seconds_counter_1\.custom_counter_4_1\.MEMORY_4\.s_currentState
*78 CIRCUIT_1111\.full_counter_1\.seconds_counter_1\.custom_counter_4_2\.MEMORY_1\.d
*79 CIRCUIT_1111\.full_counter_1\.seconds_counter_1\.custom_counter_4_2\.MEMORY_1\.s_currentState
*80 CIRCUIT_1111\.full_counter_1\.seconds_counter_1\.custom_counter_4_2\.MEMORY_2\.d
*81 CIRCUIT_1111\.full_counter_1\.seconds_counter_1\.custom_counter_4_2\.MEMORY_2\.s_currentState
*82 CIRCUIT_1111\.full_counter_1\.seconds_counter_1\.custom_counter_4_2\.MEMORY_3\.d
*83 CIRCUIT_1111\.full_counter_1\.seconds_counter_1\.custom_counter_4_2\.MEMORY_3\.s_currentState
*84 _007_
*85 _009_
*86 _011_
*87 _013_
*88 _015_
*89 _017_
*90 _019_
*91 _021_
*92 _023_
*93 _026_
*94 _027_
*95 _028_
*96 _029_
*97 _030_
*98 _031_
*99 _032_
*100 _033_
*101 _034_
*102 _035_
*103 _036_
*104 _037_
*105 _038_
*106 _041_
*107 _042_
*108 _043_
*109 _044_
*110 _045_
*111 _046_
*112 _047_
*113 _048_
*114 _049_
*115 _050_
*116 _051_
*117 _052_
*118 _053_
*119 _054_
*120 _056_
*121 _058_
*122 _060_
*123 _062_
*124 _064_
*125 _065_
*126 _066_
*127 _067_
*128 _068_
*129 _069_
*130 _070_
*131 _071_
*132 _072_
*133 _073_
*134 _074_
*135 _075_
*136 _076_
*137 _077_
*138 _078_
*139 _079_
*140 _080_
*141 _081_
*142 _082_
*143 _083_
*144 _084_
*145 _085_
*146 _086_
*147 _087_
*148 _088_
*149 _089_
*150 _090_
*151 _091_
*152 _092_
*153 _093_
*154 _094_
*155 _095_
*156 _096_
*157 _097_
*158 _098_
*159 _099_
*160 _100_
*161 _101_
*162 _102_
*163 _103_
*164 _104_
*165 _105_
*166 _106_
*167 clknet_0__068_
*168 clknet_0__069_
*169 clknet_0__070_
*170 clknet_0__071_
*171 clknet_0__072_
*172 clknet_0_clk
*173 clknet_1_0__leaf__068_
*174 clknet_1_0__leaf__069_
*175 clknet_1_0__leaf__070_
*176 clknet_1_0__leaf__071_
*177 clknet_1_0__leaf__072_
*178 clknet_1_0__leaf_clk
*179 clknet_1_1__leaf__068_
*180 clknet_1_1__leaf__069_
*181 clknet_1_1__leaf__070_
*182 clknet_1_1__leaf__071_
*183 clknet_1_1__leaf__072_
*184 clknet_1_1__leaf_clk
*185 net1
*186 net10
*187 net11
*188 net12
*189 net13
*190 net14
*191 net15
*192 net16
*193 net17
*194 net18
*195 net19
*196 net2
*197 net20
*198 net21
*199 net22
*200 net23
*201 net24
*202 net25
*203 net26
*204 net27
*205 net28
*206 net29
*207 net3
*208 net30
*209 net31
*210 net32
*211 net33
*212 net34
*213 net35
*214 net36
*215 net37
*216 net4
*217 net5
*218 net6
*219 net7
*220 net8
*221 net9
*222 prev_sel
*223 ANTENNA__216__1_A
*224 ANTENNA__217__2_A
*225 ANTENNA__218__3_A
*226 ANTENNA__219__4_A
*227 ANTENNA__231__6_A
*228 ANTENNA__240__8_A
*229 ANTENNA_clkbuf_0_clk_A
*230 ANTENNA_input1_A
*231 FILLER_0_109
*232 FILLER_0_113
*233 FILLER_0_125
*234 FILLER_0_137
*235 FILLER_0_141
*236 FILLER_0_153
*237 FILLER_0_165
*238 FILLER_0_21
*239 FILLER_0_27
*240 FILLER_0_29
*241 FILLER_0_3
*242 FILLER_0_41
*243 FILLER_0_53
*244 FILLER_0_57
*245 FILLER_0_69
*246 FILLER_0_81
*247 FILLER_0_85
*248 FILLER_0_9
*249 FILLER_0_97
*250 FILLER_10_120
*251 FILLER_10_128
*252 FILLER_10_13
*253 FILLER_10_134
*254 FILLER_10_141
*255 FILLER_10_153
*256 FILLER_10_165
*257 FILLER_10_18
*258 FILLER_10_26
*259 FILLER_10_29
*260 FILLER_10_3
*261 FILLER_10_36
*262 FILLER_10_44
*263 FILLER_10_65
*264 FILLER_10_73
*265 FILLER_10_82
*266 FILLER_10_85
*267 FILLER_10_9
*268 FILLER_10_90
*269 FILLER_10_98
*270 FILLER_11_103
*271 FILLER_11_109
*272 FILLER_11_113
*273 FILLER_11_120
*274 FILLER_11_148
*275 FILLER_11_154
*276 FILLER_11_158
*277 FILLER_11_166
*278 FILLER_11_17
*279 FILLER_11_3
*280 FILLER_11_38
*281 FILLER_11_45
*282 FILLER_11_54
*283 FILLER_11_57
*284 FILLER_11_68
*285 FILLER_11_74
*286 FILLER_11_9
*287 FILLER_11_95
*288 FILLER_12_117
*289 FILLER_12_125
*290 FILLER_12_133
*291 FILLER_12_139
*292 FILLER_12_141
*293 FILLER_12_147
*294 FILLER_12_155
*295 FILLER_12_162
*296 FILLER_12_21
*297 FILLER_12_27
*298 FILLER_12_29
*299 FILLER_12_3
*300 FILLER_12_37
*301 FILLER_12_61
*302 FILLER_12_82
*303 FILLER_12_85
*304 FILLER_12_93
*305 FILLER_13_109
*306 FILLER_13_113
*307 FILLER_13_138
*308 FILLER_13_14
*309 FILLER_13_162
*310 FILLER_13_3
*311 FILLER_13_42
*312 FILLER_13_48
*313 FILLER_13_54
*314 FILLER_13_57
*315 FILLER_13_64
*316 FILLER_13_72
*317 FILLER_13_9
*318 FILLER_13_96
*319 FILLER_14_100
*320 FILLER_14_121
*321 FILLER_14_129
*322 FILLER_14_137
*323 FILLER_14_141
*324 FILLER_14_163
*325 FILLER_14_167
*326 FILLER_14_22
*327 FILLER_14_29
*328 FILLER_14_3
*329 FILLER_14_38
*330 FILLER_14_44
*331 FILLER_14_65
*332 FILLER_14_78
*333 FILLER_14_85
*334 FILLER_14_92
*335 FILLER_15_101
*336 FILLER_15_109
*337 FILLER_15_113
*338 FILLER_15_135
*339 FILLER_15_159
*340 FILLER_15_166
*341 FILLER_15_3
*342 FILLER_15_30
*343 FILLER_15_54
*344 FILLER_15_57
*345 FILLER_15_79
*346 FILLER_15_9
*347 FILLER_16_100
*348 FILLER_16_127
*349 FILLER_16_13
*350 FILLER_16_131
*351 FILLER_16_136
*352 FILLER_16_141
*353 FILLER_16_146
*354 FILLER_16_153
*355 FILLER_16_160
*356 FILLER_16_18
*357 FILLER_16_26
*358 FILLER_16_29
*359 FILLER_16_3
*360 FILLER_16_33
*361 FILLER_16_39
*362 FILLER_16_45
*363 FILLER_16_66
*364 FILLER_16_72
*365 FILLER_16_80
*366 FILLER_16_85
*367 FILLER_16_9
*368 FILLER_16_93
*369 FILLER_17_10
*370 FILLER_17_108
*371 FILLER_17_113
*372 FILLER_17_119
*373 FILLER_17_140
*374 FILLER_17_16
*375 FILLER_17_164
*376 FILLER_17_21
*377 FILLER_17_3
*378 FILLER_17_45
*379 FILLER_17_49
*380 FILLER_17_54
*381 FILLER_17_57
*382 FILLER_17_62
*383 FILLER_17_71
*384 FILLER_17_79
*385 FILLER_17_87
*386 FILLER_18_107
*387 FILLER_18_115
*388 FILLER_18_123
*389 FILLER_18_127
*390 FILLER_18_132
*391 FILLER_18_141
*392 FILLER_18_146
*393 FILLER_18_153
*394 FILLER_18_159
*395 FILLER_18_167
*396 FILLER_18_22
*397 FILLER_18_29
*398 FILLER_18_3
*399 FILLER_18_52
*400 FILLER_18_76
*401 FILLER_18_85
*402 FILLER_19_107
*403 FILLER_19_111
*404 FILLER_19_113
*405 FILLER_19_117
*406 FILLER_19_122
*407 FILLER_19_148
*408 FILLER_19_15
*409 FILLER_19_155
*410 FILLER_19_167
*411 FILLER_19_25
*412 FILLER_19_29
*413 FILLER_19_3
*414 FILLER_19_33
*415 FILLER_19_53
*416 FILLER_19_57
*417 FILLER_19_64
*418 FILLER_19_72
*419 FILLER_19_76
*420 FILLER_19_81
*421 FILLER_19_85
*422 FILLER_1_105
*423 FILLER_1_111
*424 FILLER_1_113
*425 FILLER_1_125
*426 FILLER_1_137
*427 FILLER_1_149
*428 FILLER_1_161
*429 FILLER_1_167
*430 FILLER_1_21
*431 FILLER_1_27
*432 FILLER_1_3
*433 FILLER_1_34
*434 FILLER_1_46
*435 FILLER_1_54
*436 FILLER_1_57
*437 FILLER_1_69
*438 FILLER_1_81
*439 FILLER_1_9
*440 FILLER_1_93
*441 FILLER_20_105
*442 FILLER_20_129
*443 FILLER_20_13
*444 FILLER_20_137
*445 FILLER_20_141
*446 FILLER_20_146
*447 FILLER_20_153
*448 FILLER_20_165
*449 FILLER_20_23
*450 FILLER_20_27
*451 FILLER_20_29
*452 FILLER_20_3
*453 FILLER_20_34
*454 FILLER_20_58
*455 FILLER_20_82
*456 FILLER_20_85
*457 FILLER_20_9
*458 FILLER_20_91
*459 FILLER_20_99
*460 FILLER_21_100
*461 FILLER_21_107
*462 FILLER_21_111
*463 FILLER_21_113
*464 FILLER_21_119
*465 FILLER_21_125
*466 FILLER_21_13
*467 FILLER_21_130
*468 FILLER_21_138
*469 FILLER_21_145
*470 FILLER_21_157
*471 FILLER_21_165
*472 FILLER_21_3
*473 FILLER_21_30
*474 FILLER_21_54
*475 FILLER_21_57
*476 FILLER_21_61
*477 FILLER_21_69
*478 FILLER_21_9
*479 FILLER_21_93
*480 FILLER_22_119
*481 FILLER_22_126
*482 FILLER_22_133
*483 FILLER_22_139
*484 FILLER_22_141
*485 FILLER_22_146
*486 FILLER_22_152
*487 FILLER_22_164
*488 FILLER_22_21
*489 FILLER_22_27
*490 FILLER_22_29
*491 FILLER_22_3
*492 FILLER_22_40
*493 FILLER_22_44
*494 FILLER_22_65
*495 FILLER_22_73
*496 FILLER_22_79
*497 FILLER_22_83
*498 FILLER_22_85
*499 FILLER_22_95
*500 FILLER_23_103
*501 FILLER_23_110
*502 FILLER_23_113
*503 FILLER_23_118
*504 FILLER_23_125
*505 FILLER_23_132
*506 FILLER_23_139
*507 FILLER_23_146
*508 FILLER_23_152
*509 FILLER_23_164
*510 FILLER_23_19
*511 FILLER_23_3
*512 FILLER_23_43
*513 FILLER_23_54
*514 FILLER_23_57
*515 FILLER_23_79
*516 FILLER_23_9
*517 FILLER_24_102
*518 FILLER_24_109
*519 FILLER_24_113
*520 FILLER_24_118
*521 FILLER_24_125
*522 FILLER_24_13
*523 FILLER_24_132
*524 FILLER_24_138
*525 FILLER_24_141
*526 FILLER_24_153
*527 FILLER_24_159
*528 FILLER_24_167
*529 FILLER_24_21
*530 FILLER_24_27
*531 FILLER_24_29
*532 FILLER_24_3
*533 FILLER_24_37
*534 FILLER_24_45
*535 FILLER_24_49
*536 FILLER_24_54
*537 FILLER_24_57
*538 FILLER_24_79
*539 FILLER_24_83
*540 FILLER_24_85
*541 FILLER_24_91
*542 FILLER_24_97
*543 FILLER_2_109
*544 FILLER_2_11
*545 FILLER_2_121
*546 FILLER_2_133
*547 FILLER_2_139
*548 FILLER_2_141
*549 FILLER_2_15
*550 FILLER_2_153
*551 FILLER_2_165
*552 FILLER_2_19
*553 FILLER_2_26
*554 FILLER_2_29
*555 FILLER_2_3
*556 FILLER_2_34
*557 FILLER_2_40
*558 FILLER_2_52
*559 FILLER_2_64
*560 FILLER_2_7
*561 FILLER_2_76
*562 FILLER_2_85
*563 FILLER_2_97
*564 FILLER_3_102
*565 FILLER_3_110
*566 FILLER_3_113
*567 FILLER_3_125
*568 FILLER_3_13
*569 FILLER_3_137
*570 FILLER_3_149
*571 FILLER_3_161
*572 FILLER_3_167
*573 FILLER_3_21
*574 FILLER_3_28
*575 FILLER_3_3
*576 FILLER_3_34
*577 FILLER_3_41
*578 FILLER_3_53
*579 FILLER_3_57
*580 FILLER_3_69
*581 FILLER_3_9
*582 FILLER_3_90
*583 FILLER_4_109
*584 FILLER_4_121
*585 FILLER_4_13
*586 FILLER_4_133
*587 FILLER_4_139
*588 FILLER_4_141
*589 FILLER_4_153
*590 FILLER_4_165
*591 FILLER_4_18
*592 FILLER_4_25
*593 FILLER_4_29
*594 FILLER_4_3
*595 FILLER_4_34
*596 FILLER_4_41
*597 FILLER_4_45
*598 FILLER_4_50
*599 FILLER_4_62
*600 FILLER_4_68
*601 FILLER_4_73
*602 FILLER_4_81
*603 FILLER_4_85
*604 FILLER_4_9
*605 FILLER_4_93
*606 FILLER_4_97
*607 FILLER_5_100
*608 FILLER_5_11
*609 FILLER_5_113
*610 FILLER_5_125
*611 FILLER_5_137
*612 FILLER_5_149
*613 FILLER_5_161
*614 FILLER_5_167
*615 FILLER_5_20
*616 FILLER_5_27
*617 FILLER_5_3
*618 FILLER_5_36
*619 FILLER_5_43
*620 FILLER_5_47
*621 FILLER_5_52
*622 FILLER_5_57
*623 FILLER_5_64
*624 FILLER_5_72
*625 FILLER_5_93
*626 FILLER_6_111
*627 FILLER_6_123
*628 FILLER_6_13
*629 FILLER_6_135
*630 FILLER_6_139
*631 FILLER_6_141
*632 FILLER_6_153
*633 FILLER_6_165
*634 FILLER_6_23
*635 FILLER_6_27
*636 FILLER_6_29
*637 FILLER_6_3
*638 FILLER_6_35
*639 FILLER_6_41
*640 FILLER_6_65
*641 FILLER_6_73
*642 FILLER_6_82
*643 FILLER_6_85
*644 FILLER_7_100
*645 FILLER_7_106
*646 FILLER_7_113
*647 FILLER_7_120
*648 FILLER_7_132
*649 FILLER_7_144
*650 FILLER_7_156
*651 FILLER_7_19
*652 FILLER_7_23
*653 FILLER_7_27
*654 FILLER_7_3
*655 FILLER_7_51
*656 FILLER_7_55
*657 FILLER_7_57
*658 FILLER_7_77
*659 FILLER_7_88
*660 FILLER_7_9
*661 FILLER_7_96
*662 FILLER_8_11
*663 FILLER_8_118
*664 FILLER_8_129
*665 FILLER_8_137
*666 FILLER_8_141
*667 FILLER_8_15
*668 FILLER_8_153
*669 FILLER_8_165
*670 FILLER_8_24
*671 FILLER_8_29
*672 FILLER_8_3
*673 FILLER_8_36
*674 FILLER_8_60
*675 FILLER_8_82
*676 FILLER_8_85
*677 FILLER_8_90
*678 FILLER_9_104
*679 FILLER_9_11
*680 FILLER_9_113
*681 FILLER_9_119
*682 FILLER_9_126
*683 FILLER_9_133
*684 FILLER_9_145
*685 FILLER_9_157
*686 FILLER_9_165
*687 FILLER_9_19
*688 FILLER_9_27
*689 FILLER_9_3
*690 FILLER_9_33
*691 FILLER_9_54
*692 FILLER_9_57
*693 FILLER_9_63
*694 FILLER_9_71
*695 FILLER_9_93
*696 PHY_0
*697 PHY_1
*698 PHY_10
*699 PHY_11
*700 PHY_12
*701 PHY_13
*702 PHY_14
*703 PHY_15
*704 PHY_16
*705 PHY_17
*706 PHY_18
*707 PHY_19
*708 PHY_2
*709 PHY_20
*710 PHY_21
*711 PHY_22
*712 PHY_23
*713 PHY_24
*714 PHY_25
*715 PHY_26
*716 PHY_27
*717 PHY_28
*718 PHY_29
*719 PHY_3
*720 PHY_30
*721 PHY_31
*722 PHY_32
*723 PHY_33
*724 PHY_34
*725 PHY_35
*726 PHY_36
*727 PHY_37
*728 PHY_38
*729 PHY_39
*730 PHY_4
*731 PHY_40
*732 PHY_41
*733 PHY_42
*734 PHY_43
*735 PHY_44
*736 PHY_45
*737 PHY_46
*738 PHY_47
*739 PHY_48
*740 PHY_49
*741 PHY_5
*742 PHY_6
*743 PHY_7
*744 PHY_8
*745 PHY_9
*746 TAP_100
*747 TAP_101
*748 TAP_102
*749 TAP_103
*750 TAP_104
*751 TAP_105
*752 TAP_106
*753 TAP_107
*754 TAP_108
*755 TAP_109
*756 TAP_110
*757 TAP_111
*758 TAP_112
*759 TAP_113
*760 TAP_114
*761 TAP_115
*762 TAP_116
*763 TAP_50
*764 TAP_51
*765 TAP_52
*766 TAP_53
*767 TAP_54
*768 TAP_55
*769 TAP_56
*770 TAP_57
*771 TAP_58
*772 TAP_59
*773 TAP_60
*774 TAP_61
*775 TAP_62
*776 TAP_63
*777 TAP_64
*778 TAP_65
*779 TAP_66
*780 TAP_67
*781 TAP_68
*782 TAP_69
*783 TAP_70
*784 TAP_71
*785 TAP_72
*786 TAP_73
*787 TAP_74
*788 TAP_75
*789 TAP_76
*790 TAP_77
*791 TAP_78
*792 TAP_79
*793 TAP_80
*794 TAP_81
*795 TAP_82
*796 TAP_83
*797 TAP_84
*798 TAP_85
*799 TAP_86
*800 TAP_87
*801 TAP_88
*802 TAP_89
*803 TAP_90
*804 TAP_91
*805 TAP_92
*806 TAP_93
*807 TAP_94
*808 TAP_95
*809 TAP_96
*810 TAP_97
*811 TAP_98
*812 TAP_99
*813 _107_
*814 _108_
*815 _109_
*816 _110__10
*817 _111__11
*818 _112__12
*819 _113__13
*820 _114_
*821 _115_
*822 _116_
*823 _117_
*824 _118_
*825 _119_
*826 _120_
*827 _121_
*828 _122_
*829 _123_
*830 _124_
*831 _125_
*832 _126_
*833 _127_
*834 _128__14
*835 _129__15
*836 _130__16
*837 _131__17
*838 _132__18
*839 _133__19
*840 _134__20
*841 _135__21
*842 _136__22
*843 _137_
*844 _138_
*845 _139_
*846 _140_
*847 _141_
*848 _142_
*849 _143_
*850 _144_
*851 _145_
*852 _146_
*853 _147_
*854 _148_
*855 _149_
*856 _150_
*857 _151_
*858 _152_
*859 _153_
*860 _154_
*861 _155_
*862 _156_
*863 _157_
*864 _158_
*865 _159_
*866 _160_
*867 _161_
*868 _162_
*869 _163_
*870 _164_
*871 _165_
*872 _166_
*873 _167_
*874 _168_
*875 _169_
*876 _170_
*877 _171_
*878 _172_
*879 _173_
*880 _174_
*881 _175_
*882 _176_
*883 _177_
*884 _178_
*885 _179_
*886 _180_
*887 _181_
*888 _182_
*889 _183_
*890 _184_
*891 _185_
*892 _186_
*893 _187_
*894 _188_
*895 _189_
*896 _190_
*897 _191_
*898 _192_
*899 _193_
*900 _194_
*901 _195_
*902 _196_
*903 _197_
*904 _198_
*905 _199_
*906 _200_
*907 _201_
*908 _202_
*909 _203_
*910 _204_
*911 _205_
*912 _206_
*913 _207_
*914 _208_
*915 _209_
*916 _210_
*917 _211_
*918 _212_
*919 _213_
*920 _214_
*921 _215_
*922 _216__1
*923 _217__2
*924 _218__3
*925 _219__4
*926 _220__5
*927 _221__23
*928 _222_
*929 _223_
*930 _224_
*931 _225_
*932 _226_
*933 _227_
*934 _228_
*935 _229_
*936 _230_
*937 _231__6
*938 _232__7
*939 _233_
*940 _234_
*941 _235_
*942 _236_
*943 _237_
*944 _238_
*945 _239_
*946 _240__8
*947 _241__9
*948 _242_
*949 _243_
*950 _244_
*951 _245_
*952 _246_
*953 _247_
*954 _248_
*955 _249_
*956 _250_
*957 _251_
*958 _252_
*959 _253_
*960 _254__24
*961 _255_
*962 _256_
*963 _257_
*964 _258_
*965 _259_
*966 _260_
*967 _261_
*968 _262_
*969 _263_
*970 _264_
*971 _265_
*972 _266_
*973 _267_
*974 _268_
*975 _269_
*976 _270_
*977 _271_
*978 _272_
*979 _273_
*980 _274_
*981 _275_
*982 _276_
*983 _277_
*984 _278_
*985 _279_
*986 _280_
*987 _281_
*988 _282_
*989 _283_
*990 _284_
*991 _285_
*992 _286_
*993 _287_
*994 _288_
*995 _289_
*996 _290_
*997 _291_
*998 _292_
*999 _293_
*1000 clkbuf_0__068_
*1001 clkbuf_0__069_
*1002 clkbuf_0__070_
*1003 clkbuf_0__071_
*1004 clkbuf_0__072_
*1005 clkbuf_0_clk
*1006 clkbuf_1_0__f__068_
*1007 clkbuf_1_0__f__069_
*1008 clkbuf_1_0__f__070_
*1009 clkbuf_1_0__f__071_
*1010 clkbuf_1_0__f__072_
*1011 clkbuf_1_0__f_clk
*1012 clkbuf_1_1__f__068_
*1013 clkbuf_1_1__f__069_
*1014 clkbuf_1_1__f__070_
*1015 clkbuf_1_1__f__071_
*1016 clkbuf_1_1__f__072_
*1017 clkbuf_1_1__f_clk
*1018 input1
*1019 output10
*1020 output11
*1021 output12
*1022 output13
*1023 output2
*1024 output3
*1025 output4
*1026 output5
*1027 output6
*1028 output7
*1029 output8
*1030 output9

*PORTS
clk I
io_out[0] O
io_out[10] O
io_out[11] O
io_out[1] O
io_out[2] O
io_out[3] O
io_out[4] O
io_out[5] O
io_out[6] O
io_out[7] O
io_out[8] O
io_out[9] O
rst I

*D_NET *1 0.00206165
*CONN
*P clk I
*I *229:DIODE I *D sky130_fd_sc_hd__diode_2
*I *1005:A I *D sky130_fd_sc_hd__clkbuf_16
*CAP
1 clk 0.000696101
2 *229:DIODE 0.000334722
3 *1005:A 0
4 *1:10 0.00103082
5 *229:DIODE *964:CLK 0
6 *229:DIODE *966:RESET_B 0
7 *229:DIODE *27:15 0
8 *1:10 io_out[11] 0
9 *1:10 *849:B 0
10 *1:10 *962:CLK 0
11 *1:10 *964:CLK 0
12 *1:10 *27:15 0
13 *1:10 *137:8 0
*RES
1 clk *1:10 26.5179 
2 *1:10 *1005:A 9.3 
3 *1:10 *229:DIODE 34.6393 
*END

*D_NET *2 0.00116828
*CONN
*P io_out[0] O
*I *1023:X O *D sky130_fd_sc_hd__buf_2
*CAP
1 io_out[0] 0.00058414
2 *1023:X 0.00058414
3 io_out[0] *1026:A 0
*RES
1 *1023:X io_out[0] 33.0871 
*END

*D_NET *3 0.000878646
*CONN
*P io_out[10] O
*I *1024:X O *D sky130_fd_sc_hd__buf_2
*CAP
1 io_out[10] 0.000439323
2 *1024:X 0.000439323
*RES
1 *1024:X io_out[10] 23.7039 
*END

*D_NET *4 0.002337
*CONN
*P io_out[11] O
*I *1025:X O *D sky130_fd_sc_hd__buf_2
*CAP
1 io_out[11] 0.0011685
2 *1025:X 0.0011685
3 io_out[11] *135:7 0
4 io_out[11] *137:8 0
5 *1:10 io_out[11] 0
*RES
1 *1025:X io_out[11] 35.6956 
*END

*D_NET *5 0.000482775
*CONN
*P io_out[1] O
*I *1026:X O *D sky130_fd_sc_hd__buf_2
*CAP
1 io_out[1] 0.000241388
2 *1026:X 0.000241388
*RES
1 *1026:X io_out[1] 22.9111 
*END

*D_NET *6 0.000515505
*CONN
*P io_out[2] O
*I *1027:X O *D sky130_fd_sc_hd__buf_2
*CAP
1 io_out[2] 0.000257752
2 *1027:X 0.000257752
3 io_out[2] *1026:A 0
*RES
1 *1027:X io_out[2] 24.5871 
*END

*D_NET *7 0.00062877
*CONN
*P io_out[3] O
*I *1028:X O *D sky130_fd_sc_hd__buf_2
*CAP
1 io_out[3] 0.000314385
2 *1028:X 0.000314385
3 io_out[3] *1026:A 0
4 io_out[3] *195:8 0
*RES
1 *1028:X io_out[3] 25.7663 
*END

*D_NET *8 0.000540109
*CONN
*P io_out[4] O
*I *1029:X O *D sky130_fd_sc_hd__buf_2
*CAP
1 io_out[4] 0.000270055
2 *1029:X 0.000270055
3 io_out[4] *161:29 0
4 io_out[4] *195:8 0
*RES
1 *1029:X io_out[4] 24.0533 
*END

*D_NET *9 0.000529402
*CONN
*P io_out[5] O
*I *1030:X O *D sky130_fd_sc_hd__buf_2
*CAP
1 io_out[5] 0.000264701
2 *1030:X 0.000264701
3 io_out[5] *46:8 0
4 io_out[5] *195:8 0
*RES
1 *1030:X io_out[5] 23.5183 
*END

*D_NET *10 0.00085579
*CONN
*P io_out[6] O
*I *1019:X O *D sky130_fd_sc_hd__buf_2
*CAP
1 io_out[6] 0.000427895
2 *1019:X 0.000427895
3 io_out[6] *46:8 0
4 io_out[6] *195:8 0
*RES
1 *1019:X io_out[6] 27.7683 
*END

*D_NET *11 0.000446856
*CONN
*P io_out[7] O
*I *1020:X O *D sky130_fd_sc_hd__buf_2
*CAP
1 io_out[7] 0.000223428
2 *1020:X 0.000223428
*RES
1 *1020:X io_out[7] 22.8391 
*END

*D_NET *12 0.000586736
*CONN
*P io_out[8] O
*I *1021:X O *D sky130_fd_sc_hd__buf_2
*CAP
1 io_out[8] 0.000293368
2 *1021:X 0.000293368
3 io_out[8] *188:8 0
4 io_out[8] *188:17 0
*RES
1 *1021:X io_out[8] 24.6605 
*END

*D_NET *13 0.000493414
*CONN
*P io_out[9] O
*I *1022:X O *D sky130_fd_sc_hd__buf_2
*CAP
1 io_out[9] 0.000246707
2 *1022:X 0.000246707
3 io_out[9] *854:A1 0
*RES
1 *1022:X io_out[9] 23.4462 
*END

*D_NET *14 0.00153376
*CONN
*P rst I
*I *230:DIODE I *D sky130_fd_sc_hd__diode_2
*I *1018:A I *D sky130_fd_sc_hd__dlymetal6s2s_1
*CAP
1 rst 0.000488372
2 *230:DIODE 0.000278506
3 *1018:A 0
4 *14:14 0.000766878
5 *230:DIODE *185:10 0
6 *14:14 *850:A 0
7 *14:14 *185:10 0
*RES
1 rst *14:14 21.3036 
2 *14:14 *1018:A 9.3 
3 *14:14 *230:DIODE 15.175 
*END

*D_NET *17 0.0035283
*CONN
*I *999:D I *D sky130_fd_sc_hd__dfrtp_1
*I *921:Y O *D sky130_fd_sc_hd__inv_2
*CAP
1 *999:D 0.000181607
2 *921:Y 0.000560566
3 *17:37 0.00120359
4 *17:18 0.00158254
5 *999:D *998:CLK 0
6 *999:D *999:CLK 0
7 *999:D *21:15 0
8 *999:D *187:23 0
9 *17:18 *931:A 0
10 *17:18 *969:D 0
11 *17:18 *969:RESET_B 0
12 *17:18 *998:RESET_B 0
13 *17:18 *26:17 0
14 *17:18 *36:8 0
15 *17:18 *178:16 0
16 *17:37 *966:D 0
17 *17:37 *997:RESET_B 0
18 *17:37 *999:CLK 0
19 *17:37 *179:32 0
*RES
1 *921:Y *17:18 49.5411 
2 *17:18 *17:37 49.8661 
3 *17:37 *999:D 13.1214 
*END

*D_NET *18 0.00401679
*CONN
*I *959:A I *D sky130_fd_sc_hd__clkinv_2
*I *921:A I *D sky130_fd_sc_hd__inv_2
*I *999:Q O *D sky130_fd_sc_hd__dfrtp_1
*CAP
1 *959:A 0
2 *921:A 0.000463322
3 *999:Q 0.000412056
4 *18:24 0.00131484
5 *18:15 0.00113302
6 *18:12 0.000693557
7 *921:A *816:A 0
8 *921:A *968:RESET_B 0
9 *921:A *34:5 0
10 *921:A *182:25 0
11 *921:A *182:29 0
12 *921:A *191:23 0
13 *921:A *192:7 0
14 *18:12 *848:S 0
15 *18:12 *966:D 0
16 *18:12 *966:RESET_B 0
17 *18:12 *1011:A 0
18 *18:12 *27:15 0
19 *18:12 *187:23 0
20 *18:15 *966:RESET_B 0
21 *18:15 *184:9 0
22 *18:24 *930:A 0
23 *18:24 *960:A 0
24 *18:24 *969:CLK 0
25 *18:24 *998:RESET_B 0
26 *18:24 *1011:A 0
27 *18:24 *126:25 0
28 *18:24 *184:9 0
*RES
1 *999:Q *18:12 45.3714 
2 *18:12 *18:15 14.875 
3 *18:15 *18:24 45.7857 
4 *18:24 *921:A 28.0321 
5 *18:15 *959:A 9.3 
*END

*D_NET *19 0.000610417
*CONN
*I *998:D I *D sky130_fd_sc_hd__dfrtp_1
*I *920:Y O *D sky130_fd_sc_hd__clkinv_2
*CAP
1 *998:D 0.000305208
2 *920:Y 0.000305208
3 *998:D *864:A 0
4 *998:D *997:D 0
5 *998:D *21:15 0
6 *998:D *194:17 0
*RES
1 *920:Y *998:D 43.2964 
*END

*D_NET *20 0.000500597
*CONN
*I *958:A I *D sky130_fd_sc_hd__clkinv_2
*I *920:A I *D sky130_fd_sc_hd__clkinv_2
*I *998:Q O *D sky130_fd_sc_hd__dfrtp_1
*CAP
1 *958:A 0.000159146
2 *920:A 9.1152e-05
3 *998:Q 0
4 *20:4 0.000250298
5 *920:A *997:CLK 0
6 *920:A *178:16 0
7 *958:A *178:16 0
*RES
1 *998:Q *20:4 9.3 
2 *20:4 *920:A 29.4786 
3 *20:4 *958:A 12.7464 
*END

*D_NET *21 0.00248769
*CONN
*I *844:A I *D sky130_fd_sc_hd__nor2_2
*I *997:D I *D sky130_fd_sc_hd__dfrtp_2
*I *843:Y O *D sky130_fd_sc_hd__inv_2
*CAP
1 *844:A 0
2 *997:D 0.000536691
3 *843:Y 0.000707156
4 *21:15 0.00124385
5 *997:D *853:A 0
6 *997:D *864:A 0
7 *997:D *997:CLK 0
8 *997:D *194:17 0
9 *21:15 *133:13 0
10 *21:15 *139:21 0
11 *21:15 *187:23 0
12 *21:15 *187:35 0
13 *21:15 *194:17 0
14 *998:D *997:D 0
15 *998:D *21:15 0
16 *999:D *21:15 0
*RES
1 *843:Y *21:15 42.4786 
2 *21:15 *997:D 20.5321 
3 *21:15 *844:A 9.3 
*END

*D_NET *22 0.000489356
*CONN
*I *996:D I *D sky130_fd_sc_hd__dfrtp_4
*I *857:Y O *D sky130_fd_sc_hd__clkinv_2
*CAP
1 *996:D 0.000244678
2 *857:Y 0.000244678
3 *996:D *857:A 0
4 *996:D *996:CLK 0
5 *996:D *1000:A 0
6 *996:D *128:13 0
*RES
1 *857:Y *996:D 42.6357 
*END

*D_NET *23 0.00733329
*CONN
*I *885:A I *D sky130_fd_sc_hd__or3b_1
*I *857:A I *D sky130_fd_sc_hd__clkinv_2
*I *956:A I *D sky130_fd_sc_hd__clkinv_2
*I *891:A I *D sky130_fd_sc_hd__nor2_1
*I *892:S I *D sky130_fd_sc_hd__mux2_1
*I *888:C I *D sky130_fd_sc_hd__and3b_1
*I *886:B1 I *D sky130_fd_sc_hd__o21ai_1
*I *883:S1 I *D sky130_fd_sc_hd__mux4_2
*I *882:S0 I *D sky130_fd_sc_hd__mux4_2
*I *996:Q O *D sky130_fd_sc_hd__dfrtp_4
*CAP
1 *885:A 0.00016043
2 *857:A 0.000388912
3 *956:A 0
4 *891:A 0.000504193
5 *892:S 0.000165594
6 *888:C 0.000143745
7 *886:B1 0.000163425
8 *883:S1 0
9 *882:S0 0.000290196
10 *996:Q 0.000124066
11 *23:64 0.00072302
12 *23:24 0.00022542
13 *23:22 0.000473698
14 *23:20 0.000465676
15 *23:19 0.00112233
16 *23:14 0.00146893
17 *23:7 0.00091366
18 *857:A *957:A 0
19 *857:A *1000:A 0
20 *857:A *128:13 0
21 *857:A *168:8 0
22 *857:A *175:31 0
23 *857:A *197:11 0
24 *882:S0 *882:A1 0
25 *882:S0 *882:A3 0
26 *882:S0 *883:A3 0
27 *882:S0 *157:8 0
28 *885:A *882:A0 0
29 *885:A *882:S1 0
30 *885:A *68:41 0
31 *886:B1 *25:83 0
32 *888:C *62:8 0
33 *888:C *176:13 0
34 *891:A *858:A 0
35 *891:A *942:A 0
36 *891:A *995:CLK 0
37 *891:A *25:12 0
38 *892:S *882:A3 0
39 *892:S *888:A_N 0
40 *23:7 *143:12 0
41 *23:7 *180:11 0
42 *23:14 *991:D 0
43 *23:14 *991:RESET_B 0
44 *23:14 *1007:A 0
45 *23:14 *65:9 0
46 *23:14 *168:8 0
47 *23:14 *175:8 0
48 *23:19 *986:D 0
49 *23:19 *991:CLK 0
50 *23:19 *63:9 0
51 *23:19 *63:18 0
52 *23:20 *882:A3 0
53 *23:20 *888:A_N 0
54 *23:20 *63:18 0
55 *23:22 *882:A3 0
56 *23:22 *883:A3 0
57 *23:22 *63:18 0
58 *23:24 *882:A3 0
59 *23:24 *883:A3 0
60 *996:D *857:A 0
*RES
1 *996:Q *23:7 20.8893 
2 *23:7 *23:14 19.5 
3 *23:14 *23:19 26.6964 
4 *23:19 *23:20 2.85714 
5 *23:20 *23:22 5.58929 
6 *23:22 *23:24 2.55357 
7 *23:24 *882:S0 12.5179 
8 *23:24 *883:S1 18.3 
9 *23:22 *886:B1 21.7107 
10 *23:20 *888:C 21.3 
11 *23:19 *892:S 22.675 
12 *23:14 *23:64 4.66071 
13 *23:64 *891:A 39.175 
14 *23:64 *956:A 9.3 
15 *23:7 *857:A 27.3357 
16 *882:S0 *885:A 12.6482 
*END

*D_NET *24 0.000256222
*CONN
*I *995:D I *D sky130_fd_sc_hd__dfrtp_4
*I *858:Y O *D sky130_fd_sc_hd__clkinv_2
*CAP
1 *995:D 0.000128111
2 *858:Y 0.000128111
3 *995:D *995:CLK 0
*RES
1 *858:Y *995:D 39.6 
*END

*D_NET *25 0.00779815
*CONN
*I *858:A I *D sky130_fd_sc_hd__clkinv_2
*I *893:B2 I *D sky130_fd_sc_hd__a22o_1
*I *888:B I *D sky130_fd_sc_hd__and3b_1
*I *886:A1 I *D sky130_fd_sc_hd__o21ai_1
*I *887:A I *D sky130_fd_sc_hd__nand2_1
*I *883:S0 I *D sky130_fd_sc_hd__mux4_2
*I *882:S1 I *D sky130_fd_sc_hd__mux4_2
*I *885:B I *D sky130_fd_sc_hd__or3b_1
*I *891:B I *D sky130_fd_sc_hd__nor2_1
*I *995:Q O *D sky130_fd_sc_hd__dfrtp_4
*CAP
1 *858:A 0.000143745
2 *893:B2 0
3 *888:B 0.000449671
4 *886:A1 0
5 *887:A 0
6 *883:S0 6.20329e-05
7 *882:S1 0.000220324
8 *885:B 0.000104797
9 *891:B 0.00029367
10 *995:Q 0.000248277
11 *25:99 0.000630935
12 *25:83 0.00105019
13 *25:41 0.000420775
14 *25:39 0.00025334
15 *25:37 0.000598907
16 *25:36 0.000559337
17 *25:32 0.000897124
18 *25:12 0.00131906
19 *25:10 0.000545959
20 *858:A *995:CLK 0
21 *882:S1 *882:A0 0
22 *882:S1 *882:A2 0
23 *883:S0 *883:A0 0
24 *883:S0 *147:8 0
25 *885:B *1016:A 0
26 *885:B *68:41 0
27 *888:B *823:A 0
28 *888:B *872:A 0
29 *888:B *893:B1 0
30 *888:B *986:CLK 0
31 *888:B *176:13 0
32 *891:B *828:A 0
33 *891:B *881:A 0
34 *891:B *942:A 0
35 *891:B *984:CLK 0
36 *891:B *984:D 0
37 *891:B *40:9 0
38 *891:B *155:8 0
39 *25:10 *991:RESET_B 0
40 *25:10 *65:9 0
41 *25:12 *828:A 0
42 *25:12 *991:RESET_B 0
43 *25:12 *40:9 0
44 *25:32 *893:A1 0
45 *25:32 *984:D 0
46 *25:32 *1004:A 0
47 *25:32 *77:7 0
48 *25:32 *174:9 0
49 *25:36 *893:A1 0
50 *25:36 *174:9 0
51 *25:37 *893:B1 0
52 *25:37 *986:CLK 0
53 *25:37 *1016:A 0
54 *25:39 *1016:A 0
55 *25:39 *149:19 0
56 *25:41 *1016:A 0
57 *25:41 *149:19 0
58 *25:83 *886:A2 0
59 *25:83 *149:19 0
60 *25:83 *155:8 0
61 *25:99 *883:A3 0
62 *25:99 *887:B 0
63 *25:99 *980:D 0
64 *25:99 *68:10 0
65 *25:99 *83:13 0
66 *25:99 *97:11 0
67 *25:99 *147:8 0
68 *885:A *882:S1 0
69 *886:B1 *25:83 0
70 *891:A *858:A 0
71 *891:A *25:12 0
*RES
1 *995:Q *25:10 23.9786 
2 *25:10 *25:12 4.07143 
3 *25:12 *891:B 24.9964 
4 *25:12 *25:32 27.25 
5 *25:32 *25:36 9.53571 
6 *25:36 *25:37 2.25 
7 *25:37 *25:39 2.55357 
8 *25:39 *25:41 2.55357 
9 *25:41 *885:B 20.6929 
10 *25:41 *882:S1 23.6036 
11 *25:39 *883:S0 10.2946 