*SPEF "ieee 1481-1999"
*DESIGN "tune_player"
*DATE "11:11:11 Fri 11 11, 1111"
*VENDOR "OpenRCX"
*PROGRAM "Parallel Extraction"
*VERSION "1.0"
*DESIGN_FLOW "NAME_SCOPE LOCAL" "PIN_CAP NONE"
*DIVIDER /
*DELIMITER :
*BUS_DELIMITER []
*T_UNIT 1 NS
*C_UNIT 1 PF
*R_UNIT 1 OHM
*L_UNIT 1 HENRY

*NAME_MAP
*1 OP
*2 clk
*3 rst
*6 LFSR\[0\]
*7 LFSR\[1\]
*8 LFSR\[2\]
*9 LFSR\[3\]
*10 LFSR\[4\]
*11 LFSR\[5\]
*12 LFSR\[6\]
*13 OP_reg
*14 PC\[0\]
*15 PC\[1\]
*16 PC\[2\]
*17 PC\[3\]
*18 PC\[4\]
*19 PC\[5\]
*20 _000_
*21 _001_
*22 _002_
*23 _003_
*24 _004_
*25 _005_
*26 _006_
*27 _007_
*28 _008_
*29 _009_
*30 _010_
*31 _011_
*32 _012_
*33 _013_
*34 _014_
*35 _015_
*36 _016_
*37 _017_
*38 _018_
*39 _019_
*40 _020_
*41 _021_
*42 _022_
*43 _023_
*44 _024_
*45 _025_
*46 _026_
*47 _027_
*48 _028_
*49 _029_
*50 _030_
*51 _031_
*52 _032_
*53 _033_
*54 _034_
*55 _035_
*56 _036_
*57 _037_
*58 _038_
*59 _039_
*60 _040_
*61 _041_
*62 _042_
*63 _043_
*64 _044_
*65 _045_
*66 _046_
*67 _047_
*68 _048_
*69 _049_
*70 _050_
*71 _051_
*72 _052_
*73 _053_
*74 _054_
*75 _055_
*76 _056_
*77 _057_
*78 _058_
*79 _059_
*80 _060_
*81 _061_
*82 _062_
*83 _063_
*84 _064_
*85 _065_
*86 _066_
*87 _067_
*88 _068_
*89 _069_
*90 _070_
*91 _071_
*92 _072_
*93 _073_
*94 _074_
*95 _075_
*96 _076_
*97 _077_
*98 _078_
*99 _079_
*100 _080_
*101 _081_
*102 _082_
*103 _083_
*104 _084_
*105 _085_
*106 _086_
*107 _087_
*108 _088_
*109 _089_
*110 _090_
*111 _091_
*112 _092_
*113 _093_
*114 _094_
*115 _095_
*116 _096_
*117 _097_
*118 _098_
*119 _099_
*120 _100_
*121 _101_
*122 _102_
*123 _103_
*124 _104_
*125 _105_
*126 _106_
*127 _107_
*128 _108_
*129 _109_
*130 _110_
*131 _111_
*132 _112_
*133 _113_
*134 _114_
*135 _115_
*136 _116_
*137 _117_
*138 _118_
*139 _119_
*140 _120_
*141 _121_
*142 _122_
*143 _123_
*144 _124_
*145 _125_
*146 _126_
*147 _127_
*148 _128_
*149 _129_
*150 _130_
*151 _131_
*152 _132_
*153 _133_
*154 _134_
*155 _135_
*156 _136_
*157 _137_
*158 _138_
*159 _139_
*160 _140_
*161 _141_
*162 _142_
*163 _143_
*164 _144_
*165 _145_
*166 _146_
*167 _147_
*168 _148_
*169 _149_
*170 _150_
*171 _151_
*172 _152_
*173 _153_
*174 _154_
*175 _155_
*176 _156_
*177 _157_
*178 _158_
*179 _159_
*180 _160_
*181 _161_
*182 _162_
*183 _163_
*184 _164_
*185 _165_
*186 _166_
*187 _167_
*188 _168_
*189 _169_
*190 _170_
*191 _171_
*192 _172_
*193 _173_
*194 _174_
*195 _175_
*196 _176_
*197 _177_
*198 _178_
*199 _179_
*200 _180_
*201 _181_
*202 _182_
*203 _183_
*204 _184_
*205 _185_
*206 _186_
*207 _187_
*208 _188_
*209 _189_
*210 _190_
*211 _191_
*212 _192_
*213 _193_
*214 _194_
*215 _195_
*216 _196_
*217 _197_
*218 _198_
*219 clknet_0_clk
*220 clknet_2_0__leaf_clk
*221 clknet_2_1__leaf_clk
*222 clknet_2_2__leaf_clk
*223 clknet_2_3__leaf_clk
*224 clock_div\[0\]
*225 clock_div\[1\]
*226 clock_div\[2\]
*227 clock_div\[3\]
*228 clock_div\[4\]
*229 clock_div\[5\]
*230 clock_div\[6\]
*231 clock_div\[7\]
*232 clock_div\[8\]
*233 just_inc
*234 just_rst
*235 net1
*236 net2
*237 net3
*238 net4
*239 net5
*240 net6
*241 net7
*242 net8
*243 net9
*244 prev_clk_div
*245 rhythm_LFSR\[0\]
*246 rhythm_LFSR\[1\]
*247 rhythm_LFSR\[2\]
*248 rhythm_LFSR\[3\]
*249 tempo_LFSR\[0\]
*250 tempo_LFSR\[1\]
*251 tempo_LFSR\[2\]
*252 tempo_LFSR\[3\]
*253 tune_ROM\[0\]
*254 tune_ROM\[1\]
*255 tune_ROM\[2\]
*256 tune_ROM\[3\]
*257 tune_ROM\[4\]
*258 tune_ROM\[5\]
*259 FILLER_0_102
*260 FILLER_0_11
*261 FILLER_0_110
*262 FILLER_0_113
*263 FILLER_0_121
*264 FILLER_0_126
*265 FILLER_0_137
*266 FILLER_0_141
*267 FILLER_0_153
*268 FILLER_0_165
*269 FILLER_0_169
*270 FILLER_0_181
*271 FILLER_0_193
*272 FILLER_0_197
*273 FILLER_0_20
*274 FILLER_0_209
*275 FILLER_0_221
*276 FILLER_0_225
*277 FILLER_0_29
*278 FILLER_0_3
*279 FILLER_0_44
*280 FILLER_0_48
*281 FILLER_0_52
*282 FILLER_0_57
*283 FILLER_0_65
*284 FILLER_0_75
*285 FILLER_0_83
*286 FILLER_0_85
*287 FILLER_0_90
*288 FILLER_10_108
*289 FILLER_10_11
*290 FILLER_10_120
*291 FILLER_10_124
*292 FILLER_10_134
*293 FILLER_10_141
*294 FILLER_10_155
*295 FILLER_10_16
*296 FILLER_10_167
*297 FILLER_10_180
*298 FILLER_10_192
*299 FILLER_10_197
*300 FILLER_10_207
*301 FILLER_10_214
*302 FILLER_10_226
*303 FILLER_10_232
*304 FILLER_10_29
*305 FILLER_10_3
*306 FILLER_10_41
*307 FILLER_10_49
*308 FILLER_10_70
*309 FILLER_10_82
*310 FILLER_10_85
*311 FILLER_10_91
*312 FILLER_11_110
*313 FILLER_11_113
*314 FILLER_11_125
*315 FILLER_11_129
*316 FILLER_11_141
*317 FILLER_11_15
*318 FILLER_11_154
*319 FILLER_11_163
*320 FILLER_11_167
*321 FILLER_11_169
*322 FILLER_11_174
*323 FILLER_11_184
*324 FILLER_11_192
*325 FILLER_11_201
*326 FILLER_11_209
*327 FILLER_11_215
*328 FILLER_11_223
*329 FILLER_11_225
*330 FILLER_11_27
*331 FILLER_11_3
*332 FILLER_11_51
*333 FILLER_11_55
*334 FILLER_11_57
*335 FILLER_11_76
*336 FILLER_11_88
*337 FILLER_12_107
*338 FILLER_12_119
*339 FILLER_12_127
*340 FILLER_12_132
*341 FILLER_12_141
*342 FILLER_12_145
*343 FILLER_12_152
*344 FILLER_12_160
*345 FILLER_12_170
*346 FILLER_12_174
*347 FILLER_12_180
*348 FILLER_12_191
*349 FILLER_12_195
*350 FILLER_12_197
*351 FILLER_12_209
*352 FILLER_12_220
*353 FILLER_12_232
*354 FILLER_12_26
*355 FILLER_12_29
*356 FILLER_12_3
*357 FILLER_12_41
*358 FILLER_12_53
*359 FILLER_12_65
*360 FILLER_12_77
*361 FILLER_12_83
*362 FILLER_12_85
*363 FILLER_12_9
*364 FILLER_13_108
*365 FILLER_13_113
*366 FILLER_13_125
*367 FILLER_13_137
*368 FILLER_13_149
*369 FILLER_13_157
*370 FILLER_13_162
*371 FILLER_13_169
*372 FILLER_13_175
*373 FILLER_13_185
*374 FILLER_13_193
*375 FILLER_13_205
*376 FILLER_13_213
*377 FILLER_13_222
*378 FILLER_13_225
*379 FILLER_13_23
*380 FILLER_13_230
*381 FILLER_13_3
*382 FILLER_13_31
*383 FILLER_13_50
*384 FILLER_13_57
*385 FILLER_13_69
*386 FILLER_13_81
*387 FILLER_13_89
*388 FILLER_14_108
*389 FILLER_14_120
*390 FILLER_14_136
*391 FILLER_14_141
*392 FILLER_14_153
*393 FILLER_14_157
*394 FILLER_14_167
*395 FILLER_14_174
*396 FILLER_14_186
*397 FILLER_14_194
*398 FILLER_14_197
*399 FILLER_14_206
*400 FILLER_14_215
*401 FILLER_14_22
*402 FILLER_14_227
*403 FILLER_14_29
*404 FILLER_14_3
*405 FILLER_14_50
*406 FILLER_14_62
*407 FILLER_14_82
*408 FILLER_14_85
*409 FILLER_15_107
*410 FILLER_15_111
*411 FILLER_15_113
*412 FILLER_15_117
*413 FILLER_15_122
*414 FILLER_15_134
*415 FILLER_15_142
*416 FILLER_15_148
*417 FILLER_15_158
*418 FILLER_15_166
*419 FILLER_15_169
*420 FILLER_15_179
*421 FILLER_15_185
*422 FILLER_15_193
*423 FILLER_15_204
*424 FILLER_15_22
*425 FILLER_15_222
*426 FILLER_15_225
*427 FILLER_15_230
*428 FILLER_15_3
*429 FILLER_15_34
*430 FILLER_15_53
*431 FILLER_15_57
*432 FILLER_15_65
*433 FILLER_15_82
*434 FILLER_15_90
*435 FILLER_16_109
*436 FILLER_16_121
*437 FILLER_16_129
*438 FILLER_16_138
*439 FILLER_16_141
*440 FILLER_16_150
*441 FILLER_16_161
*442 FILLER_16_171
*443 FILLER_16_179
*444 FILLER_16_187
*445 FILLER_16_194
*446 FILLER_16_197
*447 FILLER_16_206
*448 FILLER_16_21
*449 FILLER_16_223
*450 FILLER_16_231
*451 FILLER_16_27
*452 FILLER_16_29
*453 FILLER_16_3
*454 FILLER_16_41
*455 FILLER_16_59
*456 FILLER_16_79
*457 FILLER_16_83
*458 FILLER_16_85
*459 FILLER_16_9
*460 FILLER_16_97
*461 FILLER_17_105
*462 FILLER_17_111
*463 FILLER_17_113
*464 FILLER_17_125
*465 FILLER_17_137
*466 FILLER_17_149
*467 FILLER_17_15
*468 FILLER_17_158
*469 FILLER_17_166
*470 FILLER_17_169
*471 FILLER_17_173
*472 FILLER_17_182
*473 FILLER_17_194
*474 FILLER_17_198
*475 FILLER_17_207
*476 FILLER_17_215
*477 FILLER_17_221
*478 FILLER_17_225
*479 FILLER_17_27
*480 FILLER_17_3
*481 FILLER_17_41
*482 FILLER_17_53
*483 FILLER_17_57
*484 FILLER_17_69
*485 FILLER_17_81
*486 FILLER_17_93
*487 FILLER_18_108
*488 FILLER_18_121
*489 FILLER_18_129
*490 FILLER_18_137
*491 FILLER_18_141
*492 FILLER_18_149
*493 FILLER_18_15
*494 FILLER_18_160
*495 FILLER_18_169
*496 FILLER_18_176
*497 FILLER_18_183
*498 FILLER_18_195
*499 FILLER_18_197
*500 FILLER_18_205
*501 FILLER_18_213
*502 FILLER_18_221
*503 FILLER_18_225
*504 FILLER_18_23
*505 FILLER_18_27
*506 FILLER_18_29
*507 FILLER_18_3
*508 FILLER_18_40
*509 FILLER_18_46
*510 FILLER_18_53
*511 FILLER_18_65
*512 FILLER_18_71
*513 FILLER_18_77
*514 FILLER_18_83
*515 FILLER_18_85
*516 FILLER_18_97
*517 FILLER_19_11
*518 FILLER_19_110
*519 FILLER_19_113
*520 FILLER_19_118
*521 FILLER_19_125
*522 FILLER_19_131
*523 FILLER_19_140
*524 FILLER_19_159
*525 FILLER_19_167
*526 FILLER_19_169
*527 FILLER_19_178
*528 FILLER_19_18
*529 FILLER_19_190
*530 FILLER_19_202
*531 FILLER_19_214
*532 FILLER_19_22
*533 FILLER_19_222
*534 FILLER_19_225
*535 FILLER_19_230
*536 FILLER_19_28
*537 FILLER_19_3
*538 FILLER_19_36
*539 FILLER_19_41
*540 FILLER_19_47
*541 FILLER_19_52
*542 FILLER_19_57
*543 FILLER_19_63
*544 FILLER_19_73
*545 FILLER_19_83
*546 FILLER_19_92
*547 FILLER_1_105
*548 FILLER_1_111
*549 FILLER_1_113
*550 FILLER_1_124
*551 FILLER_1_136
*552 FILLER_1_149
*553 FILLER_1_156
*554 FILLER_1_169
*555 FILLER_1_181
*556 FILLER_1_193
*557 FILLER_1_205
*558 FILLER_1_217
*559 FILLER_1_22
*560 FILLER_1_223
*561 FILLER_1_225
*562 FILLER_1_3
*563 FILLER_1_30
*564 FILLER_1_36
*565 FILLER_1_51
*566 FILLER_1_55
*567 FILLER_1_57
*568 FILLER_1_69
*569 FILLER_1_80
*570 FILLER_1_90
*571 FILLER_1_96
*572 FILLER_20_11
*573 FILLER_20_110
*574 FILLER_20_128
*575 FILLER_20_136
*576 FILLER_20_141
*577 FILLER_20_150
*578 FILLER_20_163
*579 FILLER_20_172
*580 FILLER_20_176
*581 FILLER_20_18
*582 FILLER_20_186
*583 FILLER_20_194
*584 FILLER_20_197
*585 FILLER_20_206
*586 FILLER_20_218
*587 FILLER_20_230
*588 FILLER_20_26
*589 FILLER_20_29
*590 FILLER_20_3
*591 FILLER_20_41
*592 FILLER_20_53
*593 FILLER_20_65
*594 FILLER_20_77
*595 FILLER_20_83
*596 FILLER_20_85
*597 FILLER_20_90
*598 FILLER_21_107
*599 FILLER_21_111
*600 FILLER_21_113
*601 FILLER_21_125
*602 FILLER_21_129
*603 FILLER_21_137
*604 FILLER_21_14
*605 FILLER_21_149
*606 FILLER_21_159
*607 FILLER_21_167
*608 FILLER_21_169
*609 FILLER_21_181
*610 FILLER_21_193
*611 FILLER_21_205
*612 FILLER_21_217
*613 FILLER_21_22
*614 FILLER_21_223
*615 FILLER_21_225
*616 FILLER_21_29
*617 FILLER_21_3
*618 FILLER_21_37
*619 FILLER_21_46
*620 FILLER_21_54
*621 FILLER_21_57
*622 FILLER_21_67
*623 FILLER_21_75
*624 FILLER_21_84
*625 FILLER_21_9
*626 FILLER_21_94
*627 FILLER_22_101
*628 FILLER_22_113
*629 FILLER_22_12
*630 FILLER_22_125
*631 FILLER_22_137
*632 FILLER_22_141
*633 FILLER_22_153
*634 FILLER_22_165
*635 FILLER_22_177
*636 FILLER_22_189
*637 FILLER_22_195
*638 FILLER_22_197
*639 FILLER_22_209
*640 FILLER_22_221
*641 FILLER_22_25
*642 FILLER_22_29
*643 FILLER_22_3
*644 FILLER_22_37
*645 FILLER_22_49
*646 FILLER_22_66
*647 FILLER_22_78
*648 FILLER_22_85
*649 FILLER_22_93
*650 FILLER_23_102
*651 FILLER_23_109
*652 FILLER_23_113
*653 FILLER_23_12
*654 FILLER_23_125
*655 FILLER_23_137
*656 FILLER_23_149
*657 FILLER_23_161
*658 FILLER_23_167
*659 FILLER_23_169
*660 FILLER_23_181
*661 FILLER_23_193
*662 FILLER_23_205
*663 FILLER_23_217
*664 FILLER_23_223
*665 FILLER_23_225
*666 FILLER_23_23
*667 FILLER_23_3
*668 FILLER_23_35
*669 FILLER_23_44
*670 FILLER_23_57
*671 FILLER_23_68
*672 FILLER_23_7
*673 FILLER_23_78
*674 FILLER_23_90
*675 FILLER_24_103
*676 FILLER_24_112
*677 FILLER_24_124
*678 FILLER_24_136
*679 FILLER_24_141
*680 FILLER_24_15
*681 FILLER_24_153
*682 FILLER_24_165
*683 FILLER_24_177
*684 FILLER_24_189
*685 FILLER_24_195
*686 FILLER_24_197
*687 FILLER_24_209
*688 FILLER_24_221
*689 FILLER_24_27
*690 FILLER_24_29
*691 FILLER_24_3
*692 FILLER_24_44
*693 FILLER_24_56
*694 FILLER_24_67
*695 FILLER_24_79
*696 FILLER_24_83
*697 FILLER_24_85
*698 FILLER_24_90
*699 FILLER_25_105
*700 FILLER_25_111
*701 FILLER_25_113
*702 FILLER_25_118
*703 FILLER_25_130
*704 FILLER_25_142
*705 FILLER_25_154
*706 FILLER_25_166
*707 FILLER_25_169
*708 FILLER_25_181
*709 FILLER_25_193
*710 FILLER_25_20
*711 FILLER_25_205
*712 FILLER_25_217
*713 FILLER_25_223
*714 FILLER_25_225
*715 FILLER_25_3
*716 FILLER_25_32
*717 FILLER_25_45
*718 FILLER_25_53
*719 FILLER_25_57
*720 FILLER_25_69
*721 FILLER_25_75
*722 FILLER_25_83
*723 FILLER_26_107
*724 FILLER_26_119
*725 FILLER_26_131
*726 FILLER_26_139
*727 FILLER_26_141
*728 FILLER_26_15
*729 FILLER_26_153
*730 FILLER_26_165
*731 FILLER_26_177
*732 FILLER_26_189
*733 FILLER_26_195
*734 FILLER_26_197
*735 FILLER_26_209
*736 FILLER_26_221
*737 FILLER_26_25
*738 FILLER_26_29
*739 FILLER_26_3
*740 FILLER_26_58
*741 FILLER_26_70
*742 FILLER_26_79
*743 FILLER_26_83
*744 FILLER_26_85
*745 FILLER_26_91
*746 FILLER_27_106
*747 FILLER_27_113
*748 FILLER_27_125
*749 FILLER_27_137
*750 FILLER_27_149
*751 FILLER_27_15
*752 FILLER_27_161
*753 FILLER_27_167
*754 FILLER_27_169
*755 FILLER_27_181
*756 FILLER_27_193
*757 FILLER_27_205
*758 FILLER_27_217
*759 FILLER_27_223
*760 FILLER_27_225
*761 FILLER_27_26
*762 FILLER_27_3
*763 FILLER_27_38
*764 FILLER_27_49
*765 FILLER_27_55
*766 FILLER_27_57
*767 FILLER_27_70
*768 FILLER_27_79
*769 FILLER_27_87
*770 FILLER_27_97
*771 FILLER_28_100
*772 FILLER_28_105
*773 FILLER_28_117
*774 FILLER_28_129
*775 FILLER_28_137
*776 FILLER_28_141
*777 FILLER_28_15
*778 FILLER_28_153
*779 FILLER_28_165
*780 FILLER_28_177
*781 FILLER_28_189
*782 FILLER_28_195
*783 FILLER_28_197
*784 FILLER_28_209
*785 FILLER_28_221
*786 FILLER_28_27
*787 FILLER_28_29
*788 FILLER_28_3
*789 FILLER_28_37
*790 FILLER_28_48
*791 FILLER_28_60
*792 FILLER_28_68
*793 FILLER_28_74
*794 FILLER_28_79
*795 FILLER_28_83
*796 FILLER_28_85
*797 FILLER_28_92
*798 FILLER_29_111
*799 FILLER_29_113
*800 FILLER_29_125
*801 FILLER_29_137
*802 FILLER_29_149
*803 FILLER_29_15
*804 FILLER_29_161
*805 FILLER_29_167
*806 FILLER_29_169
*807 FILLER_29_181
*808 FILLER_29_193
*809 FILLER_29_205
*810 FILLER_29_217
*811 FILLER_29_223
*812 FILLER_29_225
*813 FILLER_29_27
*814 FILLER_29_3
*815 FILLER_29_39
*816 FILLER_29_51
*817 FILLER_29_55
*818 FILLER_29_57
*819 FILLER_29_69
*820 FILLER_29_81
*821 FILLER_29_87
*822 FILLER_29_99
*823 FILLER_2_107
*824 FILLER_2_115
*825 FILLER_2_127
*826 FILLER_2_135
*827 FILLER_2_139
*828 FILLER_2_141
*829 FILLER_2_148
*830 FILLER_2_155
*831 FILLER_2_167
*832 FILLER_2_17
*833 FILLER_2_179
*834 FILLER_2_191
*835 FILLER_2_195
*836 FILLER_2_197
*837 FILLER_2_209
*838 FILLER_2_221
*839 FILLER_2_25
*840 FILLER_2_29
*841 FILLER_2_3
*842 FILLER_2_37
*843 FILLER_2_48
*844 FILLER_2_55
*845 FILLER_2_67
*846 FILLER_2_77
*847 FILLER_2_83
*848 FILLER_2_85
*849 FILLER_2_9
*850 FILLER_30_109
*851 FILLER_30_121
*852 FILLER_30_133
*853 FILLER_30_139
*854 FILLER_30_141
*855 FILLER_30_15
*856 FILLER_30_153
*857 FILLER_30_165
*858 FILLER_30_177
*859 FILLER_30_189
*860 FILLER_30_195
*861 FILLER_30_197
*862 FILLER_30_209
*863 FILLER_30_221
*864 FILLER_30_27
*865 FILLER_30_29
*866 FILLER_30_3
*867 FILLER_30_41
*868 FILLER_30_53
*869 FILLER_30_65
*870 FILLER_30_77
*871 FILLER_30_83
*872 FILLER_30_85
*873 FILLER_30_97
*874 FILLER_31_105
*875 FILLER_31_111
*876 FILLER_31_113
*877 FILLER_31_125
*878 FILLER_31_137
*879 FILLER_31_149
*880 FILLER_31_15
*881 FILLER_31_161
*882 FILLER_31_167
*883 FILLER_31_169
*884 FILLER_31_181
*885 FILLER_31_193
*886 FILLER_31_205
*887 FILLER_31_217
*888 FILLER_31_223
*889 FILLER_31_225
*890 FILLER_31_27
*891 FILLER_31_3
*892 FILLER_31_39
*893 FILLER_31_51
*894 FILLER_31_55
*895 FILLER_31_57
*896 FILLER_31_69
*897 FILLER_31_81
*898 FILLER_31_93
*899 FILLER_32_109
*900 FILLER_32_11
*901 FILLER_32_121
*902 FILLER_32_133
*903 FILLER_32_139
*904 FILLER_32_141
*905 FILLER_32_153
*906 FILLER_32_165
*907 FILLER_32_177
*908 FILLER_32_189
*909 FILLER_32_195
*910 FILLER_32_197
*911 FILLER_32_209
*912 FILLER_32_221
*913 FILLER_32_23
*914 FILLER_32_27
*915 FILLER_32_29
*916 FILLER_32_3
*917 FILLER_32_41
*918 FILLER_32_53
*919 FILLER_32_65
*920 FILLER_32_77
*921 FILLER_32_83
*922 FILLER_32_85
*923 FILLER_32_97
*924 FILLER_33_105
*925 FILLER_33_111
*926 FILLER_33_113
*927 FILLER_33_125
*928 FILLER_33_137
*929 FILLER_33_149
*930 FILLER_33_15
*931 FILLER_33_161
*932 FILLER_33_167
*933 FILLER_33_169
*934 FILLER_33_181
*935 FILLER_33_193
*936 FILLER_33_205
*937 FILLER_33_217
*938 FILLER_33_223
*939 FILLER_33_225
*940 FILLER_33_27
*941 FILLER_33_3
*942 FILLER_33_39
*943 FILLER_33_51
*944 FILLER_33_55
*945 FILLER_33_57
*946 FILLER_33_69
*947 FILLER_33_81
*948 FILLER_33_93
*949 FILLER_34_109
*950 FILLER_34_121
*951 FILLER_34_133
*952 FILLER_34_139
*953 FILLER_34_141
*954 FILLER_34_15
*955 FILLER_34_153
*956 FILLER_34_165
*957 FILLER_34_177
*958 FILLER_34_189
*959 FILLER_34_195
*960 FILLER_34_197
*961 FILLER_34_209
*962 FILLER_34_221
*963 FILLER_34_27
*964 FILLER_34_29
*965 FILLER_34_3
*966 FILLER_34_41
*967 FILLER_34_53
*968 FILLER_34_65
*969 FILLER_34_77
*970 FILLER_34_83
*971 FILLER_34_85
*972 FILLER_34_97
*973 FILLER_35_109
*974 FILLER_35_113
*975 FILLER_35_125
*976 FILLER_35_137
*977 FILLER_35_141
*978 FILLER_35_15
*979 FILLER_35_153
*980 FILLER_35_165
*981 FILLER_35_169
*982 FILLER_35_181
*983 FILLER_35_193
*984 FILLER_35_197
*985 FILLER_35_209
*986 FILLER_35_221
*987 FILLER_35_225
*988 FILLER_35_27
*989 FILLER_35_29
*990 FILLER_35_3
*991 FILLER_35_41
*992 FILLER_35_53
*993 FILLER_35_57
*994 FILLER_35_69
*995 FILLER_35_81
*996 FILLER_35_85
*997 FILLER_35_97
*998 FILLER_3_109
*999 FILLER_3_113
*1000 FILLER_3_130
*1001 FILLER_3_142
*1002 FILLER_3_156
*1003 FILLER_3_169
*1004 FILLER_3_181
*1005 FILLER_3_193
*1006 FILLER_3_205
*1007 FILLER_3_217
*1008 FILLER_3_22
*1009 FILLER_3_223
*1010 FILLER_3_225
*1011 FILLER_3_3
*1012 FILLER_3_50
*1013 FILLER_3_57
*1014 FILLER_3_81
*1015 FILLER_4_108
*1016 FILLER_4_120
*1017 FILLER_4_124
*1018 FILLER_4_132
*1019 FILLER_4_141
*1020 FILLER_4_161
*1021 FILLER_4_169
*1022 FILLER_4_177
*1023 FILLER_4_189
*1024 FILLER_4_195
*1025 FILLER_4_197
*1026 FILLER_4_209
*1027 FILLER_4_221
*1028 FILLER_4_24
*1029 FILLER_4_29
*1030 FILLER_4_3
*1031 FILLER_4_41
*1032 FILLER_4_60
*1033 FILLER_4_7
*1034 FILLER_4_80
*1035 FILLER_4_85
*1036 FILLER_4_91
*1037 FILLER_5_105
*1038 FILLER_5_111
*1039 FILLER_5_113
*1040 FILLER_5_125
*1041 FILLER_5_133
*1042 FILLER_5_138
*1043 FILLER_5_15
*1044 FILLER_5_151
*1045 FILLER_5_163
*1046 FILLER_5_167
*1047 FILLER_5_169
*1048 FILLER_5_186
*1049 FILLER_5_198
*1050 FILLER_5_210
*1051 FILLER_5_222
*1052 FILLER_5_225
*1053 FILLER_5_3
*1054 FILLER_5_36
*1055 FILLER_5_48
*1056 FILLER_5_57
*1057 FILLER_5_69
*1058 FILLER_5_93
*1059 FILLER_6_109
*1060 FILLER_6_121
*1061 FILLER_6_125
*1062 FILLER_6_135
*1063 FILLER_6_139
*1064 FILLER_6_141
*1065 FILLER_6_152
*1066 FILLER_6_158
*1067 FILLER_6_164
*1068 FILLER_6_176
*1069 FILLER_6_188
*1070 FILLER_6_197
*1071 FILLER_6_209
*1072 FILLER_6_221
*1073 FILLER_6_23
*1074 FILLER_6_27
*1075 FILLER_6_29
*1076 FILLER_6_3
*1077 FILLER_6_51
*1078 FILLER_6_63
*1079 FILLER_6_75
*1080 FILLER_6_83
*1081 FILLER_6_85
*1082 FILLER_6_89
*1083 FILLER_7_108
*1084 FILLER_7_113
*1085 FILLER_7_133
*1086 FILLER_7_142
*1087 FILLER_7_154
*1088 FILLER_7_165
*1089 FILLER_7_169
*1090 FILLER_7_181
*1091 FILLER_7_190
*1092 FILLER_7_204
*1093 FILLER_7_216
*1094 FILLER_7_225
*1095 FILLER_7_23
*1096 FILLER_7_3
*1097 FILLER_7_50
*1098 FILLER_7_57
*1099 FILLER_7_75
*1100 FILLER_7_87
*1101 FILLER_8_108
*1102 FILLER_8_128
*1103 FILLER_8_136
*1104 FILLER_8_141
*1105 FILLER_8_156
*1106 FILLER_8_171
*1107 FILLER_8_184
*1108 FILLER_8_194
*1109 FILLER_8_197
*1110 FILLER_8_206
*1111 FILLER_8_218
*1112 FILLER_8_23
*1113 FILLER_8_230
*1114 FILLER_8_27
*1115 FILLER_8_29
*1116 FILLER_8_3
*1117 FILLER_8_51
*1118 FILLER_8_79
*1119 FILLER_8_83
*1120 FILLER_8_85
*1121 FILLER_9_105
*1122 FILLER_9_111
*1123 FILLER_9_113
*1124 FILLER_9_121
*1125 FILLER_9_131
*1126 FILLER_9_143
*1127 FILLER_9_15
*1128 FILLER_9_151
*1129 FILLER_9_155
*1130 FILLER_9_167
*1131 FILLER_9_169
*1132 FILLER_9_175
*1133 FILLER_9_183
*1134 FILLER_9_195
*1135 FILLER_9_201
*1136 FILLER_9_205
*1137 FILLER_9_212
*1138 FILLER_9_225
*1139 FILLER_9_3
*1140 FILLER_9_36
*1141 FILLER_9_48
*1142 FILLER_9_57
*1143 FILLER_9_69
*1144 FILLER_9_93
*1145 PHY_0
*1146 PHY_1
*1147 PHY_10
*1148 PHY_11
*1149 PHY_12
*1150 PHY_13
*1151 PHY_14
*1152 PHY_15
*1153 PHY_16
*1154 PHY_17
*1155 PHY_18
*1156 PHY_19
*1157 PHY_2
*1158 PHY_20
*1159 PHY_21
*1160 PHY_22
*1161 PHY_23
*1162 PHY_24
*1163 PHY_25
*1164 PHY_26
*1165 PHY_27
*1166 PHY_28
*1167 PHY_29
*1168 PHY_3
*1169 PHY_30
*1170 PHY_31
*1171 PHY_32
*1172 PHY_33
*1173 PHY_34
*1174 PHY_35
*1175 PHY_36
*1176 PHY_37
*1177 PHY_38
*1178 PHY_39
*1179 PHY_4
*1180 PHY_40
*1181 PHY_41
*1182 PHY_42
*1183 PHY_43
*1184 PHY_44
*1185 PHY_45
*1186 PHY_46
*1187 PHY_47
*1188 PHY_48
*1189 PHY_49
*1190 PHY_5
*1191 PHY_50
*1192 PHY_51
*1193 PHY_52
*1194 PHY_53
*1195 PHY_54
*1196 PHY_55
*1197 PHY_56
*1198 PHY_57
*1199 PHY_58
*1200 PHY_59
*1201 PHY_6
*1202 PHY_60
*1203 PHY_61
*1204 PHY_62
*1205 PHY_63
*1206 PHY_64
*1207 PHY_65
*1208 PHY_66
*1209 PHY_67
*1210 PHY_68
*1211 PHY_69
*1212 PHY_7
*1213 PHY_70
*1214 PHY_71
*1215 PHY_8
*1216 PHY_9
*1217 TAP_100
*1218 TAP_101
*1219 TAP_102
*1220 TAP_103
*1221 TAP_104
*1222 TAP_105
*1223 TAP_106
*1224 TAP_107
*1225 TAP_108
*1226 TAP_109
*1227 TAP_110
*1228 TAP_111
*1229 TAP_112
*1230 TAP_113
*1231 TAP_114
*1232 TAP_115
*1233 TAP_116
*1234 TAP_117
*1235 TAP_118
*1236 TAP_119
*1237 TAP_120
*1238 TAP_121
*1239 TAP_122
*1240 TAP_123
*1241 TAP_124
*1242 TAP_125
*1243 TAP_126
*1244 TAP_127
*1245 TAP_128
*1246 TAP_129
*1247 TAP_130
*1248 TAP_131
*1249 TAP_132
*1250 TAP_133
*1251 TAP_134
*1252 TAP_135
*1253 TAP_136
*1254 TAP_137
*1255 TAP_138
*1256 TAP_139
*1257 TAP_140
*1258 TAP_141
*1259 TAP_142
*1260 TAP_143
*1261 TAP_144
*1262 TAP_145
*1263 TAP_146
*1264 TAP_147
*1265 TAP_148
*1266 TAP_149
*1267 TAP_150
*1268 TAP_151
*1269 TAP_152
*1270 TAP_153
*1271 TAP_154
*1272 TAP_155
*1273 TAP_156
*1274 TAP_157
*1275 TAP_158
*1276 TAP_159
*1277 TAP_160
*1278 TAP_161
*1279 TAP_162
*1280 TAP_163
*1281 TAP_164
*1282 TAP_165
*1283 TAP_166
*1284 TAP_167
*1285 TAP_168
*1286 TAP_169
*1287 TAP_170
*1288 TAP_171
*1289 TAP_172
*1290 TAP_173
*1291 TAP_174
*1292 TAP_175
*1293 TAP_176
*1294 TAP_177
*1295 TAP_178
*1296 TAP_179
*1297 TAP_180
*1298 TAP_181
*1299 TAP_182
*1300 TAP_183
*1301 TAP_184
*1302 TAP_185
*1303 TAP_186
*1304 TAP_187
*1305 TAP_188
*1306 TAP_189
*1307 TAP_190
*1308 TAP_191
*1309 TAP_192
*1310 TAP_193
*1311 TAP_194
*1312 TAP_195
*1313 TAP_196
*1314 TAP_197
*1315 TAP_198
*1316 TAP_199
*1317 TAP_200
*1318 TAP_201
*1319 TAP_202
*1320 TAP_203
*1321 TAP_204
*1322 TAP_205
*1323 TAP_206
*1324 TAP_207
*1325 TAP_208
*1326 TAP_209
*1327 TAP_210
*1328 TAP_211
*1329 TAP_212
*1330 TAP_213
*1331 TAP_214
*1332 TAP_215
*1333 TAP_216
*1334 TAP_217
*1335 TAP_218
*1336 TAP_219
*1337 TAP_220
*1338 TAP_221
*1339 TAP_222
*1340 TAP_223
*1341 TAP_72
*1342 TAP_73
*1343 TAP_74
*1344 TAP_75
*1345 TAP_76
*1346 TAP_77
*1347 TAP_78
*1348 TAP_79
*1349 TAP_80
*1350 TAP_81
*1351 TAP_82
*1352 TAP_83
*1353 TAP_84
*1354 TAP_85
*1355 TAP_86
*1356 TAP_87
*1357 TAP_88
*1358 TAP_89
*1359 TAP_90
*1360 TAP_91
*1361 TAP_92
*1362 TAP_93
*1363 TAP_94
*1364 TAP_95
*1365 TAP_96
*1366 TAP_97
*1367 TAP_98
*1368 TAP_99
*1369 _199_
*1370 _200_
*1371 _201_
*1372 _202_
*1373 _203_
*1374 _204_
*1375 _205_
*1376 _206_
*1377 _207_
*1378 _208_
*1379 _209_
*1380 _210_
*1381 _211_
*1382 _212_
*1383 _213_
*1384 _214_
*1385 _215_
*1386 _216_
*1387 _217_
*1388 _218_
*1389 _219_
*1390 _220_
*1391 _221_
*1392 _222_
*1393 _223_
*1394 _224_
*1395 _225_
*1396 _226_
*1397 _227_
*1398 _228_
*1399 _229_
*1400 _230_
*1401 _231_
*1402 _232_
*1403 _233_
*1404 _234_
*1405 _235_
*1406 _236_
*1407 _237_
*1408 _238_
*1409 _239_
*1410 _240_
*1411 _241_
*1412 _242_
*1413 _243_
*1414 _244_
*1415 _245_
*1416 _246_
*1417 _247_
*1418 _248_
*1419 _249_
*1420 _250_
*1421 _251_
*1422 _252_
*1423 _253_
*1424 _254_
*1425 _255_
*1426 _256_
*1427 _257_
*1428 _258_
*1429 _259_
*1430 _260_
*1431 _261_
*1432 _262_
*1433 _263_
*1434 _264_
*1435 _265_
*1436 _266_
*1437 _267_
*1438 _268_
*1439 _269_
*1440 _270_
*1441 _271_
*1442 _272_
*1443 _273_
*1444 _274_
*1445 _275_
*1446 _276_
*1447 _277_
*1448 _278_
*1449 _279_
*1450 _280_
*1451 _281_
*1452 _282_
*1453 _283_
*1454 _284_
*1455 _285_
*1456 _286_
*1457 _287_
*1458 _288_
*1459 _289_
*1460 _290_
*1461 _291_
*1462 _292_
*1463 _293_
*1464 _294_
*1465 _295_
*1466 _296_
*1467 _297_
*1468 _298_
*1469 _299_
*1470 _300_
*1471 _301_
*1472 _302_
*1473 _303_
*1474 _304_
*1475 _305_
*1476 _306_
*1477 _307_
*1478 _308_
*1479 _309_
*1480 _310_
*1481 _311_
*1482 _312_
*1483 _313_
*1484 _314_
*1485 _315_
*1486 _316_
*1487 _317_
*1488 _318_
*1489 _319_
*1490 _320_
*1491 _321_
*1492 _322_
*1493 _323_
*1494 _324_
*1495 _325_
*1496 _326_
*1497 _327_
*1498 _328_
*1499 _329_
*1500 _330_
*1501 _331_
*1502 _332_
*1503 _333_
*1504 _334_
*1505 _335_
*1506 _336_
*1507 _337_
*1508 _338_
*1509 _339_
*1510 _340_
*1511 _341_
*1512 _342_
*1513 _343_
*1514 _344_
*1515 _345_
*1516 _346_
*1517 _347_
*1518 _348_
*1519 _349_
*1520 _350_
*1521 _351_
*1522 _352_
*1523 _353_
*1524 _354_
*1525 _355_
*1526 _356_
*1527 _357_
*1528 _358_
*1529 _359_
*1530 _360_
*1531 _361_
*1532 _362_
*1533 _363_
*1534 _364_
*1535 _365_
*1536 _366_
*1537 _367_
*1538 _368_
*1539 _369_
*1540 _370_
*1541 _371_
*1542 _372_
*1543 _373_
*1544 _374_
*1545 _375_
*1546 _376_
*1547 _377_
*1548 _378_
*1549 _379_
*1550 _380_
*1551 _381_
*1552 _382_
*1553 _383_
*1554 _384_
*1555 _385_
*1556 _386_
*1557 _387_
*1558 _388_
*1559 _389_
*1560 _390_
*1561 _391_
*1562 _392_
*1563 _393_
*1564 _394_
*1565 _395_
*1566 _396_
*1567 _397_
*1568 _398_
*1569 _399_
*1570 _400_
*1571 _401_
*1572 _402_
*1573 _403_
*1574 _404_
*1575 _405_
*1576 _406_
*1577 _407_
*1578 _408_
*1579 _409_
*1580 _410_
*1581 _411_
*1582 _412_
*1583 _413_
*1584 _414_
*1585 _415_
*1586 _416_
*1587 _417_
*1588 _418_
*1589 _419_
*1590 _420_
*1591 _421_
*1592 _422_
*1593 _423_
*1594 _424_
*1595 _425_
*1596 _426_
*1597 _427_
*1598 _428_
*1599 _429_
*1600 _430_
*1601 _431_
*1602 _432_
*1603 _433_
*1604 _434_
*1605 _435_
*1606 _436_
*1607 _437_
*1608 _438_
*1609 clkbuf_0_clk
*1610 clkbuf_2_0__f_clk
*1611 clkbuf_2_1__f_clk
*1612 clkbuf_2_2__f_clk
*1613 clkbuf_2_3__f_clk
*1614 fanout3
*1615 fanout4
*1616 fanout5
*1617 fanout6
*1618 fanout7
*1619 fanout8
*1620 fanout9
*1621 input1
*1622 output2

*PORTS
OP O
clk I
rst I

*D_NET *1 0.00052509
*CONN
*P OP O
*I *1622:X O *D sky130_fd_sc_hd__buf_4
*CAP
1 OP 0.000262545
2 *1622:X 0.000262545
3 OP *1622:A 0
*RES
1 *1622:X OP 26.0839 
*END

*D_NET *2 0.00351045
*CONN
*P clk I
*I *1609:A I *D sky130_fd_sc_hd__clkbuf_16
*CAP
1 clk 0.00104064
2 *1609:A 0.00071458
3 *2:13 0.00175522
4 *1609:A *1606:D 0
5 *1609:A *12:8 0
6 *1609:A *44:11 0
7 *1609:A *219:12 0
8 *1609:A *234:12 0
9 *1609:A *234:138 0
10 *2:13 *1606:D 0
11 *2:13 *1607:D 0
12 *2:13 *252:6 0
*RES
1 clk *2:13 34.7993 
2 *2:13 *1609:A 36.675 
*END

*D_NET *3 0.000742247
*CONN
*P rst I
*I *1621:A I *D sky130_fd_sc_hd__clkbuf_2
*CAP
1 rst 0.000371123
2 *1621:A 0.000371123
3 *1621:A *37:10 0
*RES
1 rst *1621:A 29.0125 
*END

*D_NET *6 0.00271086
*CONN
*I *1512:A0 I *D sky130_fd_sc_hd__mux2_1
*I *1540:B I *D sky130_fd_sc_hd__nand2_1
*I *1501:B I *D sky130_fd_sc_hd__or2_1
*I *1587:Q O *D sky130_fd_sc_hd__dfxtp_1
*CAP
1 *1512:A0 0.000312973
2 *1540:B 2.56688e-05
3 *1501:B 2.56688e-05
4 *1587:Q 0.000869751
5 *6:17 0.000460008
6 *6:8 0.00101679
7 *1501:B *207:44 0
8 *1512:A0 *1512:A1 0
9 *1512:A0 *1512:S 0
10 *1512:A0 *39:9 0
11 *1512:A0 *157:21 0
12 *1540:B *157:21 0
13 *6:8 *1377:B 0
14 *6:8 *1504:B1 0
15 *6:8 *1549:C 0
16 *6:8 *1618:A 0
17 *6:8 *7:8 0
18 *6:8 *39:9 0
19 *6:8 *48:11 0
20 *6:8 *226:6 0
21 *6:17 *1504:B1 0
22 *6:17 *1512:S 0
23 *6:17 *7:17 0
*RES
1 *1587:Q *6:8 40.8179 
2 *6:8 *1501:B 18.8357 
3 *6:8 *6:17 3.16071 
4 *6:17 *1540:B 18.8357 
5 *6:17 *1512:A0 25.8714 
*END

*D_NET *7 0.00331678
*CONN
*I *1511:A0 I *D sky130_fd_sc_hd__mux2_1
*I *1518:A0 I *D sky130_fd_sc_hd__mux2_1
*I *1540:A I *D sky130_fd_sc_hd__nand2_1
*I *1501:A I *D sky130_fd_sc_hd__or2_1
*I *1588:Q O *D sky130_fd_sc_hd__dfxtp_1
*CAP
1 *1511:A0 0.000195651
2 *1518:A0 8.4707e-05
3 *1540:A 4.53482e-05
4 *1501:A 4.53482e-05
5 *1588:Q 0.000918777
6 *7:26 0.000527549
7 *7:17 0.000413905
8 *7:8 0.00108549
9 *1501:A *207:44 0
10 *1511:A0 *1511:A1 0
11 *1511:A0 *157:21 0
12 *1518:A0 *1518:A1 0
13 *1540:A *1541:A2 0
14 *1540:A *157:21 0
15 *7:8 *1377:B 0
16 *7:8 *1377:C 0
17 *7:8 *1541:A2 0
18 *7:8 *1549:B 0
19 *7:8 *1549:C 0
20 *7:8 *1551:A2 0
21 *7:8 *1599:CLK 0
22 *7:8 *221:48 0
23 *7:8 *226:6 0
24 *7:17 *1538:B2 0
25 *7:17 *1541:A2 0
26 *7:26 *157:21 0
27 *6:8 *7:8 0
28 *6:17 *7:17 0
*RES
1 *1588:Q *7:8 42.0321 
2 *7:8 *1501:A 19.2464 
3 *7:8 *7:17 3.16071 
4 *7:17 *1540:A 19.2464 
5 *7:17 *7:26 6.5 
6 *7:26 *1518:A0 20.0679 
7 *7:26 *1511:A0 23.1214 
*END

*D_NET *8 0.00425593
*CONN
*I *1517:B1 I *D sky130_fd_sc_hd__a32o_1
*I *1523:A0 I *D sky130_fd_sc_hd__mux2_1
*I *1502:C I *D sky130_fd_sc_hd__or4b_2
*I *1589:Q O *D sky130_fd_sc_hd__dfxtp_1
*CAP
1 *1517:B1 0.000422792
2 *1523:A0 0
3 *1502:C 0.000438508
4 *1589:Q 0.000985162
5 *8:11 0.000579259
6 *8:9 0.000704293
7 *8:6 0.00112591
8 *1502:C *1502:A 0
9 *1502:C *1502:B 0
10 *1502:C *1502:D_N 0
11 *1502:C *1537:A1 0
12 *1502:C *207:34 0
13 *1517:B1 *1517:A1 0
14 *1517:B1 *1536:B 0
15 *1517:B1 *1542:A2 0
16 *1517:B1 *186:11 0
17 *1517:B1 *204:36 0
18 *1517:B1 *240:11 0
19 *1517:B1 *240:29 0
20 *1517:B1 *240:50 0
21 *8:6 *1380:B 0
22 *8:6 *1542:A2 0
23 *8:6 *40:8 0
24 *8:6 *53:9 0
25 *8:6 *211:18 0
26 *8:6 *258:6 0
27 *8:9 *207:24 0
28 *8:11 *40:8 0
29 *8:11 *207:24 0
*RES
1 *1589:Q *8:6 43.925 
2 *8:6 *8:9 12 
3 *8:9 *8:11 3 
4 *8:11 *1502:C 18.5143 
5 *8:11 *1523:A0 9.3 
6 *8:9 *1517:B1 38.3446 
*END

*D_NET *9 0.00349009
*CONN
*I *1528:A0 I *D sky130_fd_sc_hd__mux2_1
*I *1522:A0 I *D sky130_fd_sc_hd__mux2_1
*I *1502:A I *D sky130_fd_sc_hd__or4b_2
*I *1590:Q O *D sky130_fd_sc_hd__dfxtp_1
*CAP
1 *1528:A0 0.000298093
2 *1522:A0 0.000360219
3 *1502:A 3.6578e-05
4 *1590:Q 0.000940446
5 *9:21 0.000768022
6 *9:8 0.00108673
7 *1522:A0 *1523:A1 0
8 *1522:A0 *1538:B1 0
9 *1522:A0 *43:11 0
10 *1528:A0 *1503:A3 0
11 *1528:A0 *1528:A1 0
12 *1528:A0 *1538:B1 0
13 *1528:A0 *207:65 0
14 *1528:A0 *207:74 0
15 *9:8 *1502:D_N 0
16 *9:8 *1599:D 0
17 *9:8 *10:8 0
18 *9:8 *12:8 0
19 *9:8 *44:11 0
20 *9:21 *1503:A3 0
21 *9:21 *43:11 0
22 *9:21 *207:40 0
23 *9:21 *207:65 0
24 *1502:C *1502:A 0
*RES
1 *1590:Q *9:8 42.3536 
2 *9:8 *1502:A 19.1393 
3 *9:8 *9:21 2.85714 
4 *9:21 *1522:A0 25.8179 