*SPEF "ieee 1481-1999"
*DESIGN "tune_player"
*DATE "11:11:11 Fri 11 11, 1111"
*VENDOR "OpenRCX"
*PROGRAM "Parallel Extraction"
*VERSION "1.0"
*DESIGN_FLOW "NAME_SCOPE LOCAL" "PIN_CAP NONE"
*DIVIDER /
*DELIMITER :
*BUS_DELIMITER []
*T_UNIT 1 NS
*C_UNIT 1 PF
*R_UNIT 1 OHM
*L_UNIT 1 HENRY

*NAME_MAP
*1 OP
*2 clk
*3 rst
*6 LFSR\[0\]
*7 LFSR\[1\]
*8 LFSR\[2\]
*9 LFSR\[3\]
*10 LFSR\[4\]
*11 LFSR\[5\]
*12 LFSR\[6\]
*13 OP_reg
*14 PC\[0\]
*15 PC\[1\]
*16 PC\[2\]
*17 PC\[3\]
*18 PC\[4\]
*19 PC\[5\]
*20 _000_
*21 _001_
*22 _002_
*23 _003_
*24 _004_
*25 _005_
*26 _006_
*27 _007_
*28 _008_
*29 _009_
*30 _010_
*31 _011_
*32 _012_
*33 _013_
*34 _014_
*35 _015_
*36 _016_
*37 _017_
*38 _018_
*39 _019_
*40 _020_
*41 _021_
*42 _022_
*43 _023_
*44 _024_
*45 _025_
*46 _026_
*47 _027_
*48 _028_
*49 _029_
*50 _030_
*51 _031_
*52 _032_
*53 _033_
*54 _034_
*55 _035_
*56 _036_
*57 _037_
*58 _038_
*59 _039_
*60 _040_
*61 _041_
*62 _042_
*63 _043_
*64 _044_
*65 _045_
*66 _046_
*67 _047_
*68 _048_
*69 _049_
*70 _050_
*71 _051_
*72 _052_
*73 _053_
*74 _054_
*75 _055_
*76 _056_
*77 _057_
*78 _058_
*79 _059_
*80 _060_
*81 _061_
*82 _062_
*83 _063_
*84 _064_
*85 _065_
*86 _066_
*87 _067_
*88 _068_
*89 _069_
*90 _070_
*91 _071_
*92 _072_
*93 _073_
*94 _074_
*95 _075_
*96 _076_
*97 _077_
*98 _078_
*99 _079_
*100 _080_
*101 _081_
*102 _082_
*103 _083_
*104 _084_
*105 _085_
*106 _086_
*107 _087_
*108 _088_
*109 _089_
*110 _090_
*111 _091_
*112 _092_
*113 _093_
*114 _094_
*115 _095_
*116 _096_
*117 _097_
*118 _098_
*119 _099_
*120 _100_
*121 _101_
*122 _102_
*123 _103_
*124 _104_
*125 _105_
*126 _106_
*127 _107_
*128 _108_
*129 _109_
*130 _110_
*131 _111_
*132 _112_
*133 _113_
*134 _114_
*135 _115_
*136 _116_
*137 _117_
*138 _118_
*139 _119_
*140 _120_
*141 _121_
*142 _122_
*143 _123_
*144 _124_
*145 _125_
*146 _126_
*147 _127_
*148 _128_
*149 _129_
*150 _130_
*151 _131_
*152 _132_
*153 _133_
*154 _134_
*155 _135_
*156 _136_
*157 _137_
*158 _138_
*159 _139_
*160 _140_
*161 _141_
*162 _142_
*163 _143_
*164 _144_
*165 _145_
*166 _146_
*167 _147_
*168 _148_
*169 _149_
*170 _150_
*171 _151_
*172 _152_
*173 _153_
*174 _154_
*175 _155_
*176 _156_
*177 _157_
*178 _158_
*179 _159_
*180 _160_
*181 _161_
*182 _162_
*183 _163_
*184 _164_
*185 _165_
*186 _166_
*187 _167_
*188 _168_
*189 _169_
*190 _170_
*191 _171_
*192 _172_
*193 _173_
*194 _174_
*195 _175_
*196 _176_
*197 _177_
*198 _178_
*199 _179_
*200 _180_
*201 _181_
*202 _182_
*203 _183_
*204 _184_
*205 _185_
*206 _186_
*207 _187_
*208 _188_
*209 _189_
*210 _190_
*211 _191_
*212 _192_
*213 _193_
*214 _194_
*215 _195_
*216 _196_
*217 _197_
*218 _198_
*219 clknet_0_clk
*220 clknet_2_0__leaf_clk
*221 clknet_2_1__leaf_clk
*222 clknet_2_2__leaf_clk
*223 clknet_2_3__leaf_clk
*224 clock_div\[0\]
*225 clock_div\[1\]
*226 clock_div\[2\]
*227 clock_div\[3\]
*228 clock_div\[4\]
*229 clock_div\[5\]
*230 clock_div\[6\]
*231 clock_div\[7\]
*232 clock_div\[8\]
*233 just_inc
*234 just_rst
*235 net1
*236 net2
*237 net3
*238 net4
*239 net5
*240 net6
*241 net7
*242 net8
*243 prev_clk_div
*244 rhythm_LFSR\[0\]
*245 rhythm_LFSR\[1\]
*246 rhythm_LFSR\[2\]
*247 rhythm_LFSR\[3\]
*248 tempo_LFSR\[0\]
*249 tempo_LFSR\[1\]
*250 tempo_LFSR\[2\]
*251 tempo_LFSR\[3\]
*252 tune_ROM\[0\]
*253 tune_ROM\[1\]
*254 tune_ROM\[2\]
*255 tune_ROM\[3\]
*256 tune_ROM\[4\]
*257 tune_ROM\[5\]
*258 FILLER_0_10
*259 FILLER_0_110
*260 FILLER_0_113
*261 FILLER_0_121
*262 FILLER_0_127
*263 FILLER_0_139
*264 FILLER_0_141
*265 FILLER_0_152
*266 FILLER_0_156
*267 FILLER_0_163
*268 FILLER_0_167
*269 FILLER_0_169
*270 FILLER_0_181
*271 FILLER_0_193
*272 FILLER_0_197
*273 FILLER_0_20
*274 FILLER_0_209
*275 FILLER_0_29
*276 FILLER_0_3
*277 FILLER_0_36
*278 FILLER_0_49
*279 FILLER_0_55
*280 FILLER_0_57
*281 FILLER_0_62
*282 FILLER_0_74
*283 FILLER_0_82
*284 FILLER_0_85
*285 FILLER_0_93
*286 FILLER_10_117
*287 FILLER_10_138
*288 FILLER_10_141
*289 FILLER_10_153
*290 FILLER_10_157
*291 FILLER_10_167
*292 FILLER_10_179
*293 FILLER_10_183
*294 FILLER_10_194
*295 FILLER_10_197
*296 FILLER_10_209
*297 FILLER_10_21
*298 FILLER_10_27
*299 FILLER_10_29
*300 FILLER_10_3
*301 FILLER_10_54
*302 FILLER_10_79
*303 FILLER_10_83
*304 FILLER_10_85
*305 FILLER_10_97
*306 FILLER_11_108
*307 FILLER_11_113
*308 FILLER_11_125
*309 FILLER_11_133
*310 FILLER_11_144
*311 FILLER_11_15
*312 FILLER_11_151
*313 FILLER_11_166
*314 FILLER_11_169
*315 FILLER_11_176
*316 FILLER_11_184
*317 FILLER_11_193
*318 FILLER_11_200
*319 FILLER_11_27
*320 FILLER_11_3
*321 FILLER_11_39
*322 FILLER_11_51
*323 FILLER_11_55
*324 FILLER_11_57
*325 FILLER_11_69
*326 FILLER_11_77
*327 FILLER_11_96
*328 FILLER_12_119
*329 FILLER_12_131
*330 FILLER_12_138
*331 FILLER_12_141
*332 FILLER_12_148
*333 FILLER_12_176
*334 FILLER_12_184
*335 FILLER_12_193
*336 FILLER_12_197
*337 FILLER_12_209
*338 FILLER_12_26
*339 FILLER_12_29
*340 FILLER_12_3
*341 FILLER_12_35
*342 FILLER_12_53
*343 FILLER_12_74
*344 FILLER_12_82
*345 FILLER_12_85
*346 FILLER_12_9
*347 FILLER_12_97
*348 FILLER_13_110
*349 FILLER_13_113
*350 FILLER_13_125
*351 FILLER_13_137
*352 FILLER_13_149
*353 FILLER_13_15
*354 FILLER_13_156
*355 FILLER_13_163
*356 FILLER_13_167
*357 FILLER_13_169
*358 FILLER_13_181
*359 FILLER_13_187
*360 FILLER_13_210
*361 FILLER_13_3
*362 FILLER_13_33
*363 FILLER_13_54
*364 FILLER_13_57
*365 FILLER_13_78
*366 FILLER_13_90
*367 FILLER_14_119
*368 FILLER_14_131
*369 FILLER_14_138
*370 FILLER_14_141
*371 FILLER_14_149
*372 FILLER_14_157
*373 FILLER_14_163
*374 FILLER_14_171
*375 FILLER_14_194
*376 FILLER_14_197
*377 FILLER_14_209
*378 FILLER_14_21
*379 FILLER_14_27
*380 FILLER_14_29
*381 FILLER_14_3
*382 FILLER_14_41
*383 FILLER_14_53
*384 FILLER_14_65
*385 FILLER_14_82
*386 FILLER_14_85
*387 FILLER_14_97
*388 FILLER_15_105
*389 FILLER_15_11
*390 FILLER_15_111
*391 FILLER_15_113
*392 FILLER_15_125
*393 FILLER_15_133
*394 FILLER_15_144
*395 FILLER_15_156
*396 FILLER_15_165
*397 FILLER_15_169
*398 FILLER_15_177
*399 FILLER_15_185
*400 FILLER_15_198
*401 FILLER_15_209
*402 FILLER_15_23
*403 FILLER_15_3
*404 FILLER_15_35
*405 FILLER_15_47
*406 FILLER_15_55
*407 FILLER_15_57
*408 FILLER_15_69
*409 FILLER_15_81
*410 FILLER_15_93
*411 FILLER_16_106
*412 FILLER_16_11
*413 FILLER_16_119
*414 FILLER_16_131
*415 FILLER_16_139
*416 FILLER_16_141
*417 FILLER_16_146
*418 FILLER_16_158
*419 FILLER_16_166
*420 FILLER_16_178
*421 FILLER_16_184
*422 FILLER_16_194
*423 FILLER_16_197
*424 FILLER_16_20
*425 FILLER_16_209
*426 FILLER_16_29
*427 FILLER_16_3
*428 FILLER_16_41
*429 FILLER_16_48
*430 FILLER_16_56
*431 FILLER_16_68
*432 FILLER_16_80
*433 FILLER_16_85
*434 FILLER_16_94
*435 FILLER_17_106
*436 FILLER_17_113
*437 FILLER_17_123
*438 FILLER_17_137
*439 FILLER_17_14
*440 FILLER_17_149
*441 FILLER_17_154
*442 FILLER_17_166
*443 FILLER_17_169
*444 FILLER_17_175
*445 FILLER_17_179
*446 FILLER_17_18
*447 FILLER_17_185
*448 FILLER_17_194
*449 FILLER_17_204
*450 FILLER_17_27
*451 FILLER_17_3
*452 FILLER_17_40
*453 FILLER_17_51
*454 FILLER_17_55
*455 FILLER_17_57
*456 FILLER_17_61
*457 FILLER_17_71
*458 FILLER_17_79
*459 FILLER_17_9
*460 FILLER_17_90
*461 FILLER_17_98
*462 FILLER_18_11
*463 FILLER_18_112
*464 FILLER_18_116
*465 FILLER_18_120
*466 FILLER_18_132
*467 FILLER_18_138
*468 FILLER_18_141
*469 FILLER_18_150
*470 FILLER_18_157
*471 FILLER_18_169
*472 FILLER_18_176
*473 FILLER_18_188
*474 FILLER_18_197
*475 FILLER_18_20
*476 FILLER_18_201
*477 FILLER_18_209
*478 FILLER_18_29
*479 FILLER_18_3
*480 FILLER_18_44
*481 FILLER_18_56
*482 FILLER_18_65
*483 FILLER_18_77
*484 FILLER_18_83
*485 FILLER_18_85
*486 FILLER_18_97
*487 FILLER_19_100
*488 FILLER_19_107
*489 FILLER_19_111
*490 FILLER_19_113
*491 FILLER_19_12
*492 FILLER_19_125
*493 FILLER_19_129
*494 FILLER_19_137
*495 FILLER_19_149
*496 FILLER_19_161
*497 FILLER_19_167
*498 FILLER_19_169
*499 FILLER_19_176
*500 FILLER_19_189
*501 FILLER_19_193
*502 FILLER_19_198
*503 FILLER_19_208
*504 FILLER_19_25
*505 FILLER_19_3
*506 FILLER_19_37
*507 FILLER_19_47
*508 FILLER_19_55
*509 FILLER_19_57
*510 FILLER_19_76
*511 FILLER_19_88
*512 FILLER_1_103
*513 FILLER_1_111
*514 FILLER_1_113
*515 FILLER_1_125
*516 FILLER_1_133
*517 FILLER_1_141
*518 FILLER_1_15
*519 FILLER_1_150
*520 FILLER_1_164
*521 FILLER_1_169
*522 FILLER_1_179
*523 FILLER_1_191
*524 FILLER_1_203
*525 FILLER_1_211
*526 FILLER_1_3
*527 FILLER_1_36
*528 FILLER_1_44
*529 FILLER_1_54
*530 FILLER_1_57
*531 FILLER_1_65
*532 FILLER_1_93
*533 FILLER_20_105
*534 FILLER_20_118
*535 FILLER_20_126
*536 FILLER_20_133
*537 FILLER_20_139
*538 FILLER_20_141
*539 FILLER_20_149
*540 FILLER_20_158
*541 FILLER_20_169
*542 FILLER_20_17
*543 FILLER_20_177
*544 FILLER_20_187
*545 FILLER_20_195
*546 FILLER_20_197
*547 FILLER_20_206
*548 FILLER_20_25
*549 FILLER_20_29
*550 FILLER_20_3
*551 FILLER_20_34
*552 FILLER_20_40
*553 FILLER_20_50
*554 FILLER_20_66
*555 FILLER_20_7
*556 FILLER_20_78
*557 FILLER_20_85
*558 FILLER_20_94
*559 FILLER_21_102
*560 FILLER_21_110
*561 FILLER_21_113
*562 FILLER_21_123
*563 FILLER_21_134
*564 FILLER_21_14
*565 FILLER_21_149
*566 FILLER_21_157
*567 FILLER_21_166
*568 FILLER_21_169
*569 FILLER_21_177
*570 FILLER_21_186
*571 FILLER_21_198
*572 FILLER_21_210
*573 FILLER_21_22
*574 FILLER_21_3
*575 FILLER_21_32
*576 FILLER_21_40
*577 FILLER_21_46
*578 FILLER_21_54
*579 FILLER_21_57
*580 FILLER_21_69
*581 FILLER_21_77
*582 FILLER_21_82
*583 FILLER_21_94
*584 FILLER_22_107
*585 FILLER_22_112
*586 FILLER_22_120
*587 FILLER_22_124
*588 FILLER_22_134
*589 FILLER_22_141
*590 FILLER_22_15
*591 FILLER_22_152
*592 FILLER_22_159
*593 FILLER_22_171
*594 FILLER_22_180
*595 FILLER_22_191
*596 FILLER_22_195
*597 FILLER_22_197
*598 FILLER_22_207
*599 FILLER_22_211
*600 FILLER_22_27
*601 FILLER_22_29
*602 FILLER_22_3
*603 FILLER_22_41
*604 FILLER_22_53
*605 FILLER_22_61
*606 FILLER_22_68
*607 FILLER_22_77
*608 FILLER_22_83
*609 FILLER_22_85
*610 FILLER_22_95
*611 FILLER_23_110
*612 FILLER_23_113
*613 FILLER_23_124
*614 FILLER_23_128
*615 FILLER_23_133
*616 FILLER_23_145
*617 FILLER_23_15
*618 FILLER_23_150
*619 FILLER_23_161
*620 FILLER_23_167
*621 FILLER_23_169
*622 FILLER_23_173
*623 FILLER_23_180
*624 FILLER_23_188
*625 FILLER_23_198
*626 FILLER_23_210
*627 FILLER_23_27
*628 FILLER_23_3
*629 FILLER_23_35
*630 FILLER_23_43
*631 FILLER_23_54
*632 FILLER_23_57
*633 FILLER_23_67
*634 FILLER_23_79
*635 FILLER_23_91
*636 FILLER_23_99
*637 FILLER_24_102
*638 FILLER_24_11
*639 FILLER_24_115
*640 FILLER_24_123
*641 FILLER_24_136
*642 FILLER_24_141
*643 FILLER_24_145
*644 FILLER_24_149
*645 FILLER_24_153
*646 FILLER_24_16
*647 FILLER_24_162
*648 FILLER_24_175
*649 FILLER_24_187
*650 FILLER_24_195
*651 FILLER_24_197
*652 FILLER_24_209
*653 FILLER_24_26
*654 FILLER_24_29
*655 FILLER_24_3
*656 FILLER_24_44
*657 FILLER_24_54
*658 FILLER_24_64
*659 FILLER_24_71
*660 FILLER_24_83
*661 FILLER_24_85
*662 FILLER_24_93
*663 FILLER_25_103
*664 FILLER_25_110
*665 FILLER_25_113
*666 FILLER_25_121
*667 FILLER_25_134
*668 FILLER_25_15
*669 FILLER_25_154
*670 FILLER_25_166
*671 FILLER_25_169
*672 FILLER_25_181
*673 FILLER_25_193
*674 FILLER_25_205
*675 FILLER_25_21
*676 FILLER_25_211
*677 FILLER_25_27
*678 FILLER_25_3
*679 FILLER_25_39
*680 FILLER_25_51
*681 FILLER_25_55
*682 FILLER_25_57
*683 FILLER_25_71
*684 FILLER_25_83
*685 FILLER_25_87
*686 FILLER_25_95
*687 FILLER_26_109
*688 FILLER_26_116
*689 FILLER_26_128
*690 FILLER_26_141
*691 FILLER_26_15
*692 FILLER_26_153
*693 FILLER_26_165
*694 FILLER_26_177
*695 FILLER_26_189
*696 FILLER_26_195
*697 FILLER_26_197
*698 FILLER_26_209
*699 FILLER_26_21
*700 FILLER_26_26
*701 FILLER_26_29
*702 FILLER_26_3
*703 FILLER_26_35
*704 FILLER_26_41
*705 FILLER_26_54
*706 FILLER_26_58
*707 FILLER_26_69
*708 FILLER_26_78
*709 FILLER_26_85
*710 FILLER_26_97
*711 FILLER_27_108
*712 FILLER_27_113
*713 FILLER_27_125
*714 FILLER_27_137
*715 FILLER_27_149
*716 FILLER_27_15
*717 FILLER_27_161
*718 FILLER_27_167
*719 FILLER_27_169
*720 FILLER_27_181
*721 FILLER_27_193
*722 FILLER_27_205
*723 FILLER_27_211
*724 FILLER_27_23
*725 FILLER_27_29
*726 FILLER_27_3
*727 FILLER_27_41
*728 FILLER_27_48
*729 FILLER_27_57
*730 FILLER_27_72
*731 FILLER_27_84
*732 FILLER_27_96
*733 FILLER_28_109
*734 FILLER_28_121
*735 FILLER_28_133
*736 FILLER_28_139
*737 FILLER_28_141
*738 FILLER_28_15
*739 FILLER_28_153
*740 FILLER_28_165
*741 FILLER_28_177
*742 FILLER_28_189
*743 FILLER_28_195
*744 FILLER_28_197
*745 FILLER_28_209
*746 FILLER_28_27
*747 FILLER_28_29
*748 FILLER_28_3
*749 FILLER_28_41
*750 FILLER_28_53
*751 FILLER_28_65
*752 FILLER_28_77
*753 FILLER_28_83
*754 FILLER_28_85
*755 FILLER_28_97
*756 FILLER_29_105
*757 FILLER_29_111
*758 FILLER_29_113
*759 FILLER_29_125
*760 FILLER_29_137
*761 FILLER_29_149
*762 FILLER_29_15
*763 FILLER_29_161
*764 FILLER_29_167
*765 FILLER_29_169
*766 FILLER_29_181
*767 FILLER_29_193
*768 FILLER_29_205
*769 FILLER_29_211
*770 FILLER_29_27
*771 FILLER_29_3
*772 FILLER_29_39
*773 FILLER_29_51
*774 FILLER_29_55
*775 FILLER_29_57
*776 FILLER_29_69
*777 FILLER_29_81
*778 FILLER_29_93
*779 FILLER_2_104
*780 FILLER_2_124
*781 FILLER_2_128
*782 FILLER_2_135
*783 FILLER_2_139
*784 FILLER_2_141
*785 FILLER_2_151
*786 FILLER_2_158
*787 FILLER_2_166
*788 FILLER_2_176
*789 FILLER_2_187
*790 FILLER_2_195
*791 FILLER_2_197
*792 FILLER_2_209
*793 FILLER_2_23
*794 FILLER_2_27
*795 FILLER_2_29
*796 FILLER_2_3
*797 FILLER_2_35
*798 FILLER_2_47
*799 FILLER_2_59
*800 FILLER_2_78
*801 FILLER_2_85
*802 FILLER_30_109
*803 FILLER_30_11
*804 FILLER_30_121
*805 FILLER_30_133
*806 FILLER_30_139
*807 FILLER_30_141
*808 FILLER_30_153
*809 FILLER_30_165
*810 FILLER_30_177
*811 FILLER_30_189
*812 FILLER_30_195
*813 FILLER_30_197
*814 FILLER_30_209
*815 FILLER_30_23
*816 FILLER_30_27
*817 FILLER_30_29
*818 FILLER_30_3
*819 FILLER_30_41
*820 FILLER_30_53
*821 FILLER_30_65
*822 FILLER_30_77
*823 FILLER_30_83
*824 FILLER_30_85
*825 FILLER_30_97
*826 FILLER_31_109
*827 FILLER_31_113
*828 FILLER_31_125
*829 FILLER_31_137
*830 FILLER_31_141
*831 FILLER_31_15
*832 FILLER_31_153
*833 FILLER_31_165
*834 FILLER_31_169
*835 FILLER_31_181
*836 FILLER_31_193
*837 FILLER_31_197
*838 FILLER_31_209
*839 FILLER_31_27
*840 FILLER_31_29
*841 FILLER_31_3
*842 FILLER_31_41
*843 FILLER_31_53
*844 FILLER_31_57
*845 FILLER_31_69
*846 FILLER_31_81
*847 FILLER_31_85
*848 FILLER_31_97
*849 FILLER_3_10
*850 FILLER_3_110
*851 FILLER_3_113
*852 FILLER_3_125
*853 FILLER_3_137
*854 FILLER_3_148
*855 FILLER_3_160
*856 FILLER_3_169
*857 FILLER_3_181
*858 FILLER_3_193
*859 FILLER_3_205
*860 FILLER_3_211
*861 FILLER_3_3
*862 FILLER_3_34
*863 FILLER_3_54
*864 FILLER_3_57
*865 FILLER_3_81
*866 FILLER_3_93
*867 FILLER_4_116
*868 FILLER_4_128
*869 FILLER_4_141
*870 FILLER_4_146
*871 FILLER_4_15
*872 FILLER_4_150
*873 FILLER_4_154
*874 FILLER_4_166
*875 FILLER_4_175
*876 FILLER_4_182
*877 FILLER_4_189
*878 FILLER_4_195
*879 FILLER_4_197
*880 FILLER_4_209
*881 FILLER_4_27
*882 FILLER_4_29
*883 FILLER_4_3
*884 FILLER_4_41
*885 FILLER_4_53
*886 FILLER_4_65
*887 FILLER_4_77
*888 FILLER_4_83
*889 FILLER_4_85
*890 FILLER_4_97
*891 FILLER_5_110
*892 FILLER_5_113
*893 FILLER_5_125
*894 FILLER_5_138
*895 FILLER_5_150
*896 FILLER_5_162
*897 FILLER_5_169
*898 FILLER_5_173
*899 FILLER_5_182
*900 FILLER_5_194
*901 FILLER_5_206
*902 FILLER_5_22
*903 FILLER_5_3
*904 FILLER_5_34
*905 FILLER_5_54
*906 FILLER_5_57
*907 FILLER_5_81
*908 FILLER_5_93
*909 FILLER_6_110
*910 FILLER_6_122
*911 FILLER_6_133
*912 FILLER_6_139
*913 FILLER_6_141
*914 FILLER_6_15
*915 FILLER_6_153
*916 FILLER_6_165
*917 FILLER_6_175
*918 FILLER_6_182
*919 FILLER_6_194
*920 FILLER_6_197
*921 FILLER_6_209
*922 FILLER_6_27
*923 FILLER_6_29
*924 FILLER_6_3
*925 FILLER_6_33
*926 FILLER_6_53
*927 FILLER_6_82
*928 FILLER_6_85
*929 FILLER_6_93
*930 FILLER_7_110
*931 FILLER_7_113
*932 FILLER_7_125
*933 FILLER_7_140
*934 FILLER_7_15
*935 FILLER_7_156
*936 FILLER_7_169
*937 FILLER_7_177
*938 FILLER_7_189
*939 FILLER_7_198
*940 FILLER_7_207
*941 FILLER_7_211
*942 FILLER_7_3
*943 FILLER_7_33
*944 FILLER_7_53
*945 FILLER_7_57
*946 FILLER_7_69
*947 FILLER_7_73
*948 FILLER_7_90
*949 FILLER_8_116
*950 FILLER_8_128
*951 FILLER_8_138
*952 FILLER_8_141
*953 FILLER_8_152
*954 FILLER_8_161
*955 FILLER_8_173
*956 FILLER_8_181
*957 FILLER_8_193
*958 FILLER_8_197
*959 FILLER_8_207
*960 FILLER_8_21
*961 FILLER_8_211
*962 FILLER_8_27
*963 FILLER_8_29
*964 FILLER_8_3
*965 FILLER_8_53
*966 FILLER_8_77
*967 FILLER_8_83
*968 FILLER_8_85
*969 FILLER_8_97
*970 FILLER_9_105
*971 FILLER_9_111
*972 FILLER_9_113
*973 FILLER_9_125
*974 FILLER_9_137
*975 FILLER_9_144
*976 FILLER_9_15
*977 FILLER_9_156
*978 FILLER_9_166
*979 FILLER_9_169
*980 FILLER_9_178
*981 FILLER_9_189
*982 FILLER_9_196
*983 FILLER_9_208
*984 FILLER_9_3
*985 FILLER_9_36
*986 FILLER_9_48
*987 FILLER_9_57
*988 FILLER_9_69
*989 FILLER_9_93
*990 PHY_0
*991 PHY_1
*992 PHY_10
*993 PHY_11
*994 PHY_12
*995 PHY_13
*996 PHY_14
*997 PHY_15
*998 PHY_16
*999 PHY_17
*1000 PHY_18
*1001 PHY_19
*1002 PHY_2
*1003 PHY_20
*1004 PHY_21
*1005 PHY_22
*1006 PHY_23
*1007 PHY_24
*1008 PHY_25
*1009 PHY_26
*1010 PHY_27
*1011 PHY_28
*1012 PHY_29
*1013 PHY_3
*1014 PHY_30
*1015 PHY_31
*1016 PHY_32
*1017 PHY_33
*1018 PHY_34
*1019 PHY_35
*1020 PHY_36
*1021 PHY_37
*1022 PHY_38
*1023 PHY_39
*1024 PHY_4
*1025 PHY_40
*1026 PHY_41
*1027 PHY_42
*1028 PHY_43
*1029 PHY_44
*1030 PHY_45
*1031 PHY_46
*1032 PHY_47
*1033 PHY_48
*1034 PHY_49
*1035 PHY_5
*1036 PHY_50
*1037 PHY_51
*1038 PHY_52
*1039 PHY_53
*1040 PHY_54
*1041 PHY_55
*1042 PHY_56
*1043 PHY_57
*1044 PHY_58
*1045 PHY_59
*1046 PHY_6
*1047 PHY_60
*1048 PHY_61
*1049 PHY_62
*1050 PHY_63
*1051 PHY_7
*1052 PHY_8
*1053 PHY_9
*1054 TAP_100
*1055 TAP_101
*1056 TAP_102
*1057 TAP_103
*1058 TAP_104
*1059 TAP_105
*1060 TAP_106
*1061 TAP_107
*1062 TAP_108
*1063 TAP_109
*1064 TAP_110
*1065 TAP_111
*1066 TAP_112
*1067 TAP_113
*1068 TAP_114
*1069 TAP_115
*1070 TAP_116
*1071 TAP_117
*1072 TAP_118
*1073 TAP_119
*1074 TAP_120
*1075 TAP_121
*1076 TAP_122
*1077 TAP_123
*1078 TAP_124
*1079 TAP_125
*1080 TAP_126
*1081 TAP_127
*1082 TAP_128
*1083 TAP_129
*1084 TAP_130
*1085 TAP_131
*1086 TAP_132
*1087 TAP_133
*1088 TAP_134
*1089 TAP_135
*1090 TAP_136
*1091 TAP_137
*1092 TAP_138
*1093 TAP_139
*1094 TAP_140
*1095 TAP_141
*1096 TAP_142
*1097 TAP_143
*1098 TAP_144
*1099 TAP_145
*1100 TAP_146
*1101 TAP_147
*1102 TAP_148
*1103 TAP_149
*1104 TAP_150
*1105 TAP_151
*1106 TAP_152
*1107 TAP_153
*1108 TAP_154
*1109 TAP_155
*1110 TAP_156
*1111 TAP_157
*1112 TAP_158
*1113 TAP_159
*1114 TAP_160
*1115 TAP_161
*1116 TAP_162
*1117 TAP_163
*1118 TAP_164
*1119 TAP_165
*1120 TAP_166
*1121 TAP_167
*1122 TAP_168
*1123 TAP_169
*1124 TAP_170
*1125 TAP_171
*1126 TAP_172
*1127 TAP_173
*1128 TAP_174
*1129 TAP_175
*1130 TAP_176
*1131 TAP_177
*1132 TAP_178
*1133 TAP_179
*1134 TAP_180
*1135 TAP_181
*1136 TAP_182
*1137 TAP_64
*1138 TAP_65
*1139 TAP_66
*1140 TAP_67
*1141 TAP_68
*1142 TAP_69
*1143 TAP_70
*1144 TAP_71
*1145 TAP_72
*1146 TAP_73
*1147 TAP_74
*1148 TAP_75
*1149 TAP_76
*1150 TAP_77
*1151 TAP_78
*1152 TAP_79
*1153 TAP_80
*1154 TAP_81
*1155 TAP_82
*1156 TAP_83
*1157 TAP_84
*1158 TAP_85
*1159 TAP_86
*1160 TAP_87
*1161 TAP_88
*1162 TAP_89
*1163 TAP_90
*1164 TAP_91
*1165 TAP_92
*1166 TAP_93
*1167 TAP_94
*1168 TAP_95
*1169 TAP_96
*1170 TAP_97
*1171 TAP_98
*1172 TAP_99
*1173 _199_
*1174 _200_
*1175 _201_
*1176 _202_
*1177 _203_
*1178 _204_
*1179 _205_
*1180 _206_
*1181 _207_
*1182 _208_
*1183 _209_
*1184 _210_
*1185 _211_
*1186 _212_
*1187 _213_
*1188 _214_
*1189 _215_
*1190 _216_
*1191 _217_
*1192 _218_
*1193 _219_
*1194 _220_
*1195 _221_
*1196 _222_
*1197 _223_
*1198 _224_
*1199 _225_
*1200 _226_
*1201 _227_
*1202 _228_
*1203 _229_
*1204 _230_
*1205 _231_
*1206 _232_
*1207 _233_
*1208 _234_
*1209 _235_
*1210 _236_
*1211 _237_
*1212 _238_
*1213 _239_
*1214 _240_
*1215 _241_
*1216 _242_
*1217 _243_
*1218 _244_
*1219 _245_
*1220 _246_
*1221 _247_
*1222 _248_
*1223 _249_
*1224 _250_
*1225 _251_
*1226 _252_
*1227 _253_
*1228 _254_
*1229 _255_
*1230 _256_
*1231 _257_
*1232 _258_
*1233 _259_
*1234 _260_
*1235 _261_
*1236 _262_
*1237 _263_
*1238 _264_
*1239 _265_
*1240 _266_
*1241 _267_
*1242 _268_
*1243 _269_
*1244 _270_
*1245 _271_
*1246 _272_
*1247 _273_
*1248 _274_
*1249 _275_
*1250 _276_
*1251 _277_
*1252 _278_
*1253 _279_
*1254 _280_
*1255 _281_
*1256 _282_
*1257 _283_
*1258 _284_
*1259 _285_
*1260 _286_
*1261 _287_
*1262 _288_
*1263 _289_
*1264 _290_
*1265 _291_
*1266 _292_
*1267 _293_
*1268 _294_
*1269 _295_
*1270 _296_
*1271 _297_
*1272 _298_
*1273 _299_
*1274 _300_
*1275 _301_
*1276 _302_
*1277 _303_
*1278 _304_
*1279 _305_
*1280 _306_
*1281 _307_
*1282 _308_
*1283 _309_
*1284 _310_
*1285 _311_
*1286 _312_
*1287 _313_
*1288 _314_
*1289 _315_
*1290 _316_
*1291 _317_
*1292 _318_
*1293 _319_
*1294 _320_
*1295 _321_
*1296 _322_
*1297 _323_
*1298 _324_
*1299 _325_
*1300 _326_
*1301 _327_
*1302 _328_
*1303 _329_
*1304 _330_
*1305 _331_
*1306 _332_
*1307 _333_
*1308 _334_
*1309 _335_
*1310 _336_
*1311 _337_
*1312 _338_
*1313 _339_
*1314 _340_
*1315 _341_
*1316 _342_
*1317 _343_
*1318 _344_
*1319 _345_
*1320 _346_
*1321 _347_
*1322 _348_
*1323 _349_
*1324 _350_
*1325 _351_
*1326 _352_
*1327 _353_
*1328 _354_
*1329 _355_
*1330 _356_
*1331 _357_
*1332 _358_
*1333 _359_
*1334 _360_
*1335 _361_
*1336 _362_
*1337 _363_
*1338 _364_
*1339 _365_
*1340 _366_
*1341 _367_
*1342 _368_
*1343 _369_
*1344 _370_
*1345 _371_
*1346 _372_
*1347 _373_
*1348 _374_
*1349 _375_
*1350 _376_
*1351 _377_
*1352 _378_
*1353 _379_
*1354 _380_
*1355 _381_
*1356 _382_
*1357 _383_
*1358 _384_
*1359 _385_
*1360 _386_
*1361 _387_
*1362 _388_
*1363 _389_
*1364 _390_
*1365 _391_
*1366 _392_
*1367 _393_
*1368 _394_
*1369 _395_
*1370 _396_
*1371 _397_
*1372 _398_
*1373 _399_
*1374 _400_
*1375 _401_
*1376 _402_
*1377 _403_
*1378 _404_
*1379 _405_
*1380 _406_
*1381 _407_
*1382 _408_
*1383 _409_
*1384 _410_
*1385 _411_
*1386 _412_
*1387 _413_
*1388 _414_
*1389 _415_
*1390 _416_
*1391 _417_
*1392 _418_
*1393 _419_
*1394 _420_
*1395 _421_
*1396 _422_
*1397 _423_
*1398 _424_
*1399 _425_
*1400 _426_
*1401 _427_
*1402 _428_
*1403 _429_
*1404 _430_
*1405 _431_
*1406 _432_
*1407 _433_
*1408 _434_
*1409 _435_
*1410 _436_
*1411 _437_
*1412 _438_
*1413 clkbuf_0_clk
*1414 clkbuf_2_0__f_clk
*1415 clkbuf_2_1__f_clk
*1416 clkbuf_2_2__f_clk
*1417 clkbuf_2_3__f_clk
*1418 fanout3
*1419 fanout4
*1420 fanout5
*1421 fanout6
*1422 fanout7
*1423 fanout8
*1424 input1
*1425 output2

*PORTS
OP O
clk I
rst I

*D_NET *1 0.000641725
*CONN
*P OP O
*I *1425:X O *D sky130_fd_sc_hd__buf_4
*CAP
1 OP 0.000320863
2 *1425:X 0.000320863
*RES
1 *1425:X OP 27.6018 
*END

*D_NET *2 0.00346743
*CONN
*P clk I
*I *1413:A I *D sky130_fd_sc_hd__clkbuf_16
*CAP
1 clk 0.0012044
2 *1413:A 0.000529317
3 *2:13 0.00173372
4 *1413:A *1409:CLK 0
5 *1413:A *222:20 0
6 *1413:A *222:27 0
7 *1413:A *227:10 0
8 *1413:A *232:17 0
9 *1413:A *233:8 0
10 *1413:A *234:9 0
11 *1413:A *257:14 0
12 *2:13 *1353:B 0
13 *2:13 *240:46 0
14 *2:13 *240:56 0
*RES
1 clk *2:13 37.8535 
2 *2:13 *1413:A 32.0857 
*END

*D_NET *3 0.000509113
*CONN
*P rst I
*I *1424:A I *D sky130_fd_sc_hd__clkbuf_4
*CAP
1 rst 0.000254556
2 *1424:A 0.000254556
3 *1424:A *39:8 0
*RES
1 rst *1424:A 25.9768 
*END

*D_NET *6 0.00427464
*CONN
*I *1316:A0 I *D sky130_fd_sc_hd__mux2_1
*I *1344:B I *D sky130_fd_sc_hd__nand2_1
*I *1305:B I *D sky130_fd_sc_hd__or2_1
*I *1391:Q O *D sky130_fd_sc_hd__dfxtp_1
*CAP
1 *1316:A0 0.000214576
2 *1344:B 0.00058758
3 *1305:B 6.35302e-05
4 *1391:Q 0.000252358
5 *6:14 0.00065111
6 *6:12 0.00123385
7 *6:10 0.00127163
8 *1305:B *1305:A 0
9 *1316:A0 *1315:A0 0
10 *1316:A0 *7:20 0
11 *1316:A0 *38:15 0
12 *1344:B *1305:A 0
13 *1344:B *1344:A 0
14 *1344:B *1346:C1 0
15 *1344:B *7:11 0
16 *1344:B *176:9 0
17 *1344:B *240:10 0
18 *6:10 *1288:B 0
19 *6:10 *1391:CLK 0
20 *6:10 *38:15 0
21 *6:12 *1288:B 0
22 *6:12 *1308:B1 0
23 *6:12 *1309:B1 0
24 *6:12 *1390:D 0
25 *6:12 *38:15 0
26 *6:12 *157:51 0
27 *6:12 *157:55 0
28 *6:12 *235:9 0
*RES
1 *1391:Q *6:10 23.9875 
2 *6:10 *6:12 26.5446 
3 *6:12 *6:14 9 
4 *6:14 *1305:B 10.6571 
5 *6:14 *1344:B 40.1036 
6 *6:12 *1316:A0 23.8179 
*END

*D_NET *7 0.0036459
*CONN
*I *1344:A I *D sky130_fd_sc_hd__nand2_1
*I *1315:A0 I *D sky130_fd_sc_hd__mux2_1
*I *1322:A0 I *D sky130_fd_sc_hd__mux2_1
*I *1305:A I *D sky130_fd_sc_hd__or2_1
*I *1392:Q O *D sky130_fd_sc_hd__dfxtp_1
*CAP
1 *1344:A 0.000333515
2 *1315:A0 0.000374136
3 *1322:A0 0
4 *1305:A 6.50276e-05
5 *1392:Q 0.000877773
6 *7:20 0.000425562
7 *7:11 0.000237525
8 *7:10 0.00133236
9 *1305:A *155:11 0
10 *1315:A0 *1315:A1 0
11 *1315:A0 *1315:S 0
12 *1315:A0 *1316:A1 0
13 *1315:A0 *38:15 0
14 *1315:A0 *157:49 0
15 *1315:A0 *157:51 0
16 *1315:A0 *236:9 0
17 *1344:A *155:11 0
18 *7:10 *1288:B 0
19 *7:10 *1308:A1 0
20 *7:10 *1309:A2 0
21 *7:10 *1347:B1_N 0
22 *7:10 *1421:A 0
23 *7:10 *44:9 0
24 *7:10 *221:53 0
25 *7:10 *236:9 0
26 *7:10 *240:10 0
27 *7:10 *240:15 0
28 *7:11 *155:11 0
29 *7:20 *157:51 0
30 *1305:B *1305:A 0
31 *1316:A0 *1315:A0 0
32 *1316:A0 *7:20 0
33 *1344:B *1305:A 0
34 *1344:B *1344:A 0
35 *1344:B *7:11 0
*RES
1 *1392:Q *7:10 49.925 
2 *7:10 *7:11 2.58929 
3 *7:11 *1305:A 10.6571 
4 *7:11 *7:20 10.3393 
5 *7:20 *1322:A0 18.3 
6 *7:20 *1315:A0 27.8714 
7 *7:10 *1344:A 34.7107 
*END

*D_NET *8 0.00274863
*CONN
*I *1321:B1 I *D sky130_fd_sc_hd__a32o_1
*I *1306:C I *D sky130_fd_sc_hd__or4b_2
*I *1327:A0 I *D sky130_fd_sc_hd__mux2_1
*I *1393:Q O *D sky130_fd_sc_hd__dfxtp_1
*CAP
1 *1321:B1 0.000188801
2 *1306:C 0
3 *1327:A0 0
4 *1393:Q 0.000984948
5 *8:15 0.000389365
6 *8:8 0.00118551
7 *1321:B1 *172:9 0
8 *1321:B1 *237:33 0
9 *1321:B1 *256:6 0
10 *8:8 *1381:CLK 0
11 *8:8 *1393:D 0
12 *8:8 *40:8 0
13 *8:8 *219:29 0
14 *8:8 *237:33 0
15 *8:8 *256:6 0
16 *8:8 *257:14 0
17 *8:15 *1327:A1 0
18 *8:15 *237:33 0
19 *8:15 *256:6 0
*RES
1 *1393:Q *8:8 42.8 
2 *8:8 *1327:A0 18.3 
3 *8:8 *8:15 5.28571 
4 *8:15 *1306:C 18.3 
5 *8:15 *1321:B1 23.2196 
*END

*D_NET *9 0.00262885
*CONN
*I *1326:A0 I *D sky130_fd_sc_hd__mux2_1
*I *1306:A I *D sky130_fd_sc_hd__or4b_2
*I *1332:A0 I *D sky130_fd_sc_hd__mux2_1
*I *1394:Q O *D sky130_fd_sc_hd__dfxtp_1
*CAP
1 *1326:A0 0.000124921
2 *1306:A 9.80534e-05
3 *1332:A0 0
4 *1394:Q 0.000553262
5 *9:21 0.000761164
6 *9:11 0.00109145
7 *1306:A *254:8 0
8 *1306:A *256:6 0
9 *1326:A0 *172:9 0
10 *1326:A0 *235:34 0
11 *9:11 *1306:D_N 0
12 *9:11 *1308:A1 0
13 *9:11 *1347:A2 0
14 *9:11 *1394:D 0
15 *9:11 *1395:CLK 0
16 *9:11 *12:8 0
17 *9:11 *43:11 0
18 *9:11 *235:34 0
19 *9:11 *240:15 0
20 *9:21 *1342:A1 0
21 *9:21 *1342:A2 0
22 *9:21 *1342:B2 0
23 *9:21 *235:34 0
24 *9:21 *240:15 0
*RES
1 *1394:Q *9:11 40.8714 
2 *9:11 *1332:A0 9.3 
3 *9:11 *9:21 11.3571 
4 *9:21 *1306:A 29.8536 
5 *9:21 *1326:A0 12.0321 
*END

*D_NET *10 0.00272661
*CONN
*I *1307:A2 I *D sky130_fd_sc_hd__o31ai_4
*I *1337:A0 I *D sky130_fd_sc_hd__mux2_1
*I *1331:A0 I *D sky130_fd_sc_hd__mux2_1
*I *1395:Q O *D sky130_fd_sc_hd__dfxtp_2
*CAP
1 *1307:A2 0.000436797
2 *1337:A0 0
3 *1331:A0 2.56688e-05
4 *1395:Q 0.00071321
5 *10:20 0.000624426
6 *10:8 0.000926507
7 *1307:A2 *1307:A1 0
8 *1331:A0 *1306:D_N 0
9 *10:8 *1337:S 0
10 *10:8 *42:9 0
11 *10:8 *43:11 0
12 *10:8 *240:18 0
13 *10:8 *240:24 0
14 *10:20 *1337:S 0
15 *10:20 *1342:B1 0
16 *10:20 *42:9 0
17 *10:20 *176:9 0
*RES
1 *1395:Q *10:8 35.6214 
2 *10:8 *1331:A0 18.8357 
3 *10:8 *10:20 13.7143 
4 *10:20 *1337:A0 9.3 
5 *10:20 *1307:A2 18.4786 
*END

*D_NET *11 0.0021688
*CONN
*I *1307:A1 I *D sky130_fd_sc_hd__o31ai_4
*I *1336:A0 I *D sky130_fd_sc_hd__mux2_1
*I *1342:A2 I *D sky130_fd_sc_hd__a22o_1
*I *1396:Q O *D sky130_fd_sc_hd__dfxtp_2
*CAP
1 *1307:A1 0.000208752
2 *1336:A0 0.000124066
3 *1342:A2 6.50276e-05
4 *1396:Q 0.000450154
5 *11:17 0.000569217
6 *11:6 0.000751581
7 *1307:A1 *1306:B 0
8 *1307:A1 *257:16 0
9 *1336:A0 *1306:B 0
10 *11:6 *234:9 0
11 *11:6 *257:16 0
12 *11:17 *1342:B1 0
13 *11:17 *257:16 0
14 *1307:A2 *1307:A1 0
15 *9:21 *1342:A2 0
*RES
1 *1396:Q *11:6 29.9607 
2 *11:6 *1342:A2 19.6571 
3 *11:6 *11:17 15.5 
4 *11:17 *1336:A0 11.8893 
5 *11:17 *1307:A1 32.4786 
*END

*D_NET *12 0.00341309
*CONN
*I *1347:A2 I *D sky130_fd_sc_hd__a21bo_1
*I *1341:A2 I *D sky130_fd_sc_hd__o21a_1
*I *1306:D_N I *D sky130_fd_sc_hd__or4b_2
*I *1397:Q O *D sky130_fd_sc_hd__dfxtp_1
*CAP
1 *1347:A2 8.39968e-05
2 *1341:A2 0.000278506
3 *1306:D_N 0.000677573
4 *1397:Q 0.000444007
5 *12:11 0.00117854
6 *12:8 0.000750467
7 *1306:D_N *1331:S 0
8 *1306:D_N *1332:A1 0
9 *1306:D_N *1394:D 0
10 *1306:D_N *176:9 0
11 *1306:D_N *207:41 0
12 *1306:D_N *207:46 0
13 *1341:A2 *1226:B1 0
14 *1341:A2 *207:46 0
15 *1347:A2 *1308:A1 0
16 *12:8 *1308:A1 0
17 *12:8 *13:6 0
18 *12:8 *13:15 0
19 *12:8 *44:9 0
20 *1331:A0 *1306:D_N 0
21 *9:11 *1306:D_N 0
22 *9:11 *1347:A2 0
23 *9:11 *12:8 0
*RES
1 *1397:Q *12:8 29.3 
2 *12:8 *12:11 13.6429 
3 *12:11 *1306:D_N 42.3714 
4 *12:11 *1341:A2 15.175 
5 *12:8 *1347:A2 20.55 
*END

*D_NET *13 0.00132184
*CONN
*I *1308:A1 I *D sky130_fd_sc_hd__o21ai_1
*I *1288:A I *D sky130_fd_sc_hd__and2_1
*I *1309:A1 I *D sky130_fd_sc_hd__a21oi_1
*I *1390:Q O *D sky130_fd_sc_hd__dfxtp_1
*CAP
1 *1308:A1 0.00025405
2 *1288:A 2.56688e-05
3 *1309:A1 0.000222463
4 *1390:Q 9.80534e-05
5 *13:15 0.000340402
6 *13:6 0.0003812
7 *1308:A1 *44:9 0
8 *1308:A1 *235:9 0
9 *1308:A1 *235:19 0
10 *1309:A1 *1309:A2 0
11 *1309:A1 *1309:B1 0
12 *13:6 *44:9 0
13 *13:15 *44:9 0
14 *1347:A2 *1308:A1 0
15 *7:10 *1308:A1 0
16 *9:11 *1308:A1 0
17 *12:8 *1308:A1 0
18 *12:8 *13:6 0
19 *12:8 *13:15 0
*RES
1 *1390:Q *13:6 20.8536 
2 *13:6 *1309:A1 22.9429 
3 *13:6 *13:15 1.64286 
4 *13:15 *1288:A 18.8357 
5 *13:15 *1308:A1 24.1571 
*END

*D_NET *14 0.00323739
*CONN
*I *1205:C1 I *D sky130_fd_sc_hd__a311o_1
*I *1199:D1 I *D sky130_fd_sc_hd__o2111a_4
*I *1383:Q O *D sky130_fd_sc_hd__dfxtp_1
*CAP
1 *1205:C1 0.000277523
2 *1199:D1 2.0535e-05
3 *1383:Q 0.000980096
4 *14:11 0.000638598
5 *14:10 0.00132064
6 *1199:D1 *62:31 0
7 *1205:C1 *1205:A1 0
8 *1205:C1 *1205:B1 0
9 *1205:C1 *1365:D 0
10 *1205:C1 *67:27 0
11 *1205:C1 *216:11 0
12 *1205:C1 *216:14 0
13 *14:10 *1296:S 0
14 *14:10 *22:17 0
15 *14:10 *22:27 0
16 *14:10 *144:20 0
17 *14:11 *1199:A1 0
18 *14:11 *1365:D 0
19 *14:11 *62:18 0
20 *14:11 *62:31 0
21 *14:11 *216:11 0
*RES
1 *1383:Q *14:10 48.4429 
2 *14:10 *14:11 7.10714 