*SPEF "ieee 1481-1999"
*DESIGN "tune_player"
*DATE "11:11:11 Fri 11 11, 1111"
*VENDOR "OpenRCX"
*PROGRAM "Parallel Extraction"
*VERSION "1.0"
*DESIGN_FLOW "NAME_SCOPE LOCAL" "PIN_CAP NONE"
*DIVIDER /
*DELIMITER :
*BUS_DELIMITER []
*T_UNIT 1 NS
*C_UNIT 1 PF
*R_UNIT 1 OHM
*L_UNIT 1 HENRY

*NAME_MAP
*1 OP
*2 clk
*3 rst
*6 LFSR\[0\]
*7 LFSR\[1\]
*8 LFSR\[2\]
*9 LFSR\[3\]
*10 LFSR\[4\]
*11 LFSR\[5\]
*12 LFSR\[6\]
*13 OP_reg
*14 PC\[0\]
*15 PC\[1\]
*16 PC\[2\]
*17 PC\[3\]
*18 PC\[4\]
*19 PC\[5\]
*20 _000_
*21 _001_
*22 _002_
*23 _003_
*24 _004_
*25 _005_
*26 _006_
*27 _007_
*28 _008_
*29 _009_
*30 _010_
*31 _011_
*32 _012_
*33 _013_
*34 _014_
*35 _015_
*36 _016_
*37 _017_
*38 _018_
*39 _019_
*40 _020_
*41 _021_
*42 _022_
*43 _023_
*44 _024_
*45 _025_
*46 _026_
*47 _027_
*48 _028_
*49 _029_
*50 _030_
*51 _031_
*52 _032_
*53 _033_
*54 _034_
*55 _035_
*56 _036_
*57 _037_
*58 _038_
*59 _039_
*60 _040_
*61 _041_
*62 _042_
*63 _043_
*64 _044_
*65 _045_
*66 _046_
*67 _047_
*68 _048_
*69 _049_
*70 _050_
*71 _051_
*72 _052_
*73 _053_
*74 _054_
*75 _055_
*76 _056_
*77 _057_
*78 _058_
*79 _059_
*80 _060_
*81 _061_
*82 _062_
*83 _063_
*84 _064_
*85 _065_
*86 _066_
*87 _067_
*88 _068_
*89 _069_
*90 _070_
*91 _071_
*92 _072_
*93 _073_
*94 _074_
*95 _075_
*96 _076_
*97 _077_
*98 _078_
*99 _079_
*100 _080_
*101 _081_
*102 _082_
*103 _083_
*104 _084_
*105 _085_
*106 _086_
*107 _087_
*108 _088_
*109 _089_
*110 _090_
*111 _091_
*112 _092_
*113 _093_
*114 _094_
*115 _095_
*116 _096_
*117 _097_
*118 _098_
*119 _099_
*120 _100_
*121 _101_
*122 _102_
*123 _103_
*124 _104_
*125 _105_
*126 _106_
*127 _107_
*128 _108_
*129 _109_
*130 _110_
*131 _111_
*132 _112_
*133 _113_
*134 _114_
*135 _115_
*136 _116_
*137 _117_
*138 _118_
*139 _119_
*140 _120_
*141 _121_
*142 _122_
*143 _123_
*144 _124_
*145 _125_
*146 _126_
*147 _127_
*148 _128_
*149 _129_
*150 _130_
*151 _131_
*152 _132_
*153 _133_
*154 _134_
*155 _135_
*156 _136_
*157 _137_
*158 _138_
*159 _139_
*160 _140_
*161 _141_
*162 _142_
*163 _143_
*164 _144_
*165 _145_
*166 _146_
*167 _147_
*168 _148_
*169 _149_
*170 _150_
*171 _151_
*172 _152_
*173 _153_
*174 _154_
*175 _155_
*176 _156_
*177 _157_
*178 _158_
*179 _159_
*180 _160_
*181 _161_
*182 _162_
*183 _163_
*184 _164_
*185 _165_
*186 _166_
*187 _167_
*188 _168_
*189 _169_
*190 _170_
*191 _171_
*192 _172_
*193 _173_
*194 _174_
*195 _175_
*196 _176_
*197 _177_
*198 _178_
*199 _179_
*200 _180_
*201 _181_
*202 _182_
*203 _183_
*204 _184_
*205 _185_
*206 _186_
*207 _187_
*208 _188_
*209 _189_
*210 _190_
*211 _191_
*212 _192_
*213 _193_
*214 _194_
*215 _195_
*216 _196_
*217 _197_
*218 _198_
*219 _199_
*220 _200_
*221 _201_
*222 _202_
*223 _203_
*224 _204_
*225 _205_
*226 _206_
*227 _207_
*228 _208_
*229 _209_
*230 _210_
*231 _211_
*232 _212_
*233 _213_
*234 _214_
*235 _215_
*236 _216_
*237 _217_
*238 _218_
*239 _219_
*240 clknet_0_clk
*241 clknet_2_0__leaf_clk
*242 clknet_2_1__leaf_clk
*243 clknet_2_2__leaf_clk
*244 clknet_2_3__leaf_clk
*245 clock_div\[0\]
*246 clock_div\[1\]
*247 clock_div\[2\]
*248 clock_div\[3\]
*249 clock_div\[4\]
*250 clock_div\[5\]
*251 clock_div\[6\]
*252 clock_div\[7\]
*253 clock_div\[8\]
*254 just_inc
*255 just_rst
*256 net1
*257 prev_clk_div
*258 rhythm_LFSR\[0\]
*259 rhythm_LFSR\[1\]
*260 rhythm_LFSR\[2\]
*261 rhythm_LFSR\[3\]
*262 tempo_LFSR\[0\]
*263 tempo_LFSR\[1\]
*264 tempo_LFSR\[2\]
*265 tempo_LFSR\[3\]
*266 tune_ROM\[0\]
*267 tune_ROM\[1\]
*268 tune_ROM\[2\]
*269 tune_ROM\[3\]
*270 tune_ROM\[4\]
*271 tune_ROM\[5\]
*272 ANTENNA__237__B1
*273 ANTENNA__240__A
*274 ANTENNA__242__A
*275 ANTENNA__248__A
*276 ANTENNA__254__A
*277 ANTENNA__258__A
*278 ANTENNA__259__A
*279 ANTENNA__264__A
*280 ANTENNA__281__B
*281 ANTENNA__302__A
*282 ANTENNA__338__A
*283 ANTENNA__354__A
*284 ANTENNA__361__A
*285 ANTENNA__407__C1
*286 ANTENNA__409__S
*287 ANTENNA__427__B1
*288 ANTENNA__431__A
*289 ANTENNA__480__D
*290 ANTENNA_clkbuf_0_clk_A
*291 ANTENNA_input1_A
*292 FILLER_0_105
*293 FILLER_0_110
*294 FILLER_0_113
*295 FILLER_0_120
*296 FILLER_0_128
*297 FILLER_0_132
*298 FILLER_0_137
*299 FILLER_0_141
*300 FILLER_0_149
*301 FILLER_0_15
*302 FILLER_0_154
*303 FILLER_0_162
*304 FILLER_0_169
*305 FILLER_0_175
*306 FILLER_0_181
*307 FILLER_0_19
*308 FILLER_0_191
*309 FILLER_0_195
*310 FILLER_0_197
*311 FILLER_0_209
*312 FILLER_0_221
*313 FILLER_0_225
*314 FILLER_0_24
*315 FILLER_0_29
*316 FILLER_0_3
*317 FILLER_0_36
*318 FILLER_0_44
*319 FILLER_0_53
*320 FILLER_0_57
*321 FILLER_0_65
*322 FILLER_0_71
*323 FILLER_0_79
*324 FILLER_0_83
*325 FILLER_0_85
*326 FILLER_0_93
*327 FILLER_10_114
*328 FILLER_10_125
*329 FILLER_10_138
*330 FILLER_10_141
*331 FILLER_10_147
*332 FILLER_10_162
*333 FILLER_10_171
*334 FILLER_10_184
*335 FILLER_10_193
*336 FILLER_10_197
*337 FILLER_10_203
*338 FILLER_10_21
*339 FILLER_10_210
*340 FILLER_10_222
*341 FILLER_10_230
*342 FILLER_10_27
*343 FILLER_10_29
*344 FILLER_10_3
*345 FILLER_10_40
*346 FILLER_10_61
*347 FILLER_10_65
*348 FILLER_10_82
*349 FILLER_10_85
*350 FILLER_10_97
*351 FILLER_11_11
*352 FILLER_11_110
*353 FILLER_11_113
*354 FILLER_11_125
*355 FILLER_11_133
*356 FILLER_11_143
*357 FILLER_11_152
*358 FILLER_11_158
*359 FILLER_11_162
*360 FILLER_11_169
*361 FILLER_11_178
*362 FILLER_11_185
*363 FILLER_11_189
*364 FILLER_11_198
*365 FILLER_11_210
*366 FILLER_11_217
*367 FILLER_11_223
*368 FILLER_11_225
*369 FILLER_11_28
*370 FILLER_11_3
*371 FILLER_11_35
*372 FILLER_11_41
*373 FILLER_11_44
*374 FILLER_11_57
*375 FILLER_11_85
*376 FILLER_11_93
*377 FILLER_12_114
*378 FILLER_12_129
*379 FILLER_12_137
*380 FILLER_12_141
*381 FILLER_12_15
*382 FILLER_12_153
*383 FILLER_12_165
*384 FILLER_12_172
*385 FILLER_12_176
*386 FILLER_12_180
*387 FILLER_12_188
*388 FILLER_12_197
*389 FILLER_12_204
*390 FILLER_12_216
*391 FILLER_12_228
*392 FILLER_12_232
*393 FILLER_12_27
*394 FILLER_12_29
*395 FILLER_12_3
*396 FILLER_12_47
*397 FILLER_12_59
*398 FILLER_12_65
*399 FILLER_12_82
*400 FILLER_12_85
*401 FILLER_12_97
*402 FILLER_13_106
*403 FILLER_13_113
*404 FILLER_13_125
*405 FILLER_13_138
*406 FILLER_13_148
*407 FILLER_13_158
*408 FILLER_13_166
*409 FILLER_13_169
*410 FILLER_13_177
*411 FILLER_13_189
*412 FILLER_13_201
*413 FILLER_13_21
*414 FILLER_13_213
*415 FILLER_13_221
*416 FILLER_13_225
*417 FILLER_13_29
*418 FILLER_13_3
*419 FILLER_13_47
*420 FILLER_13_55
*421 FILLER_13_57
*422 FILLER_13_69
*423 FILLER_13_77
*424 FILLER_13_94
*425 FILLER_14_114
*426 FILLER_14_126
*427 FILLER_14_136
*428 FILLER_14_141
*429 FILLER_14_151
*430 FILLER_14_157
*431 FILLER_14_173
*432 FILLER_14_185
*433 FILLER_14_193
*434 FILLER_14_197
*435 FILLER_14_209
*436 FILLER_14_21
*437 FILLER_14_221
*438 FILLER_14_27
*439 FILLER_14_29
*440 FILLER_14_3
*441 FILLER_14_51
*442 FILLER_14_71
*443 FILLER_14_83
*444 FILLER_14_85
*445 FILLER_14_97
*446 FILLER_15_110
*447 FILLER_15_113
*448 FILLER_15_120
*449 FILLER_15_127
*450 FILLER_15_140
*451 FILLER_15_149
*452 FILLER_15_156
*453 FILLER_15_169
*454 FILLER_15_181
*455 FILLER_15_193
*456 FILLER_15_205
*457 FILLER_15_21
*458 FILLER_15_217
*459 FILLER_15_223
*460 FILLER_15_225
*461 FILLER_15_3
*462 FILLER_15_41
*463 FILLER_15_53
*464 FILLER_15_57
*465 FILLER_15_75
*466 FILLER_15_86
*467 FILLER_16_11
*468 FILLER_16_112
*469 FILLER_16_119
*470 FILLER_16_131
*471 FILLER_16_139
*472 FILLER_16_141
*473 FILLER_16_146
*474 FILLER_16_158
*475 FILLER_16_170
*476 FILLER_16_182
*477 FILLER_16_194
*478 FILLER_16_197
*479 FILLER_16_209
*480 FILLER_16_22
*481 FILLER_16_221
*482 FILLER_16_29
*483 FILLER_16_3
*484 FILLER_16_38
*485 FILLER_16_45
*486 FILLER_16_54
*487 FILLER_16_61
*488 FILLER_16_73
*489 FILLER_16_80
*490 FILLER_16_85
*491 FILLER_16_93
*492 FILLER_17_105
*493 FILLER_17_110
*494 FILLER_17_113
*495 FILLER_17_122
*496 FILLER_17_13
*497 FILLER_17_134
*498 FILLER_17_142
*499 FILLER_17_151
*500 FILLER_17_163
*501 FILLER_17_167
*502 FILLER_17_169
*503 FILLER_17_181
*504 FILLER_17_193
*505 FILLER_17_205
*506 FILLER_17_21
*507 FILLER_17_217
*508 FILLER_17_223
*509 FILLER_17_225
*510 FILLER_17_3
*511 FILLER_17_35
*512 FILLER_17_43
*513 FILLER_17_50
*514 FILLER_17_57
*515 FILLER_17_70
*516 FILLER_17_86
*517 FILLER_17_97
*518 FILLER_18_103
*519 FILLER_18_116
*520 FILLER_18_122
*521 FILLER_18_133
*522 FILLER_18_139
*523 FILLER_18_141
*524 FILLER_18_151
*525 FILLER_18_163
*526 FILLER_18_17
*527 FILLER_18_175
*528 FILLER_18_187
*529 FILLER_18_195
*530 FILLER_18_197
*531 FILLER_18_209
*532 FILLER_18_221
*533 FILLER_18_26
*534 FILLER_18_29
*535 FILLER_18_3
*536 FILLER_18_39
*537 FILLER_18_43
*538 FILLER_18_61
*539 FILLER_18_7
*540 FILLER_18_72
*541 FILLER_18_80
*542 FILLER_18_85
*543 FILLER_18_94
*544 FILLER_19_101
*545 FILLER_19_110
*546 FILLER_19_113
*547 FILLER_19_127
*548 FILLER_19_13
*549 FILLER_19_138
*550 FILLER_19_145
*551 FILLER_19_157
*552 FILLER_19_165
*553 FILLER_19_169
*554 FILLER_19_181
*555 FILLER_19_193
*556 FILLER_19_205
*557 FILLER_19_217
*558 FILLER_19_223
*559 FILLER_19_225
*560 FILLER_19_23
*561 FILLER_19_3
*562 FILLER_19_35
*563 FILLER_19_48
*564 FILLER_19_57
*565 FILLER_19_68
*566 FILLER_19_7
*567 FILLER_19_76
*568 FILLER_19_84
*569 FILLER_19_89
*570 FILLER_1_101
*571 FILLER_1_105
*572 FILLER_1_110
*573 FILLER_1_113
*574 FILLER_1_122
*575 FILLER_1_135
*576 FILLER_1_143
*577 FILLER_1_15
*578 FILLER_1_153
*579 FILLER_1_162
*580 FILLER_1_169
*581 FILLER_1_176
*582 FILLER_1_182
*583 FILLER_1_196
*584 FILLER_1_203
*585 FILLER_1_215
*586 FILLER_1_223
*587 FILLER_1_225
*588 FILLER_1_3
*589 FILLER_1_36
*590 FILLER_1_46
*591 FILLER_1_54
*592 FILLER_1_57
*593 FILLER_1_61
*594 FILLER_1_69
*595 FILLER_1_93
*596 FILLER_20_107
*597 FILLER_20_120
*598 FILLER_20_127
*599 FILLER_20_131
*600 FILLER_20_135
*601 FILLER_20_139
*602 FILLER_20_141
*603 FILLER_20_153
*604 FILLER_20_165
*605 FILLER_20_177
*606 FILLER_20_189
*607 FILLER_20_195
*608 FILLER_20_197
*609 FILLER_20_20
*610 FILLER_20_209
*611 FILLER_20_221
*612 FILLER_20_26
*613 FILLER_20_29
*614 FILLER_20_3
*615 FILLER_20_34
*616 FILLER_20_40
*617 FILLER_20_46
*618 FILLER_20_54
*619 FILLER_20_58
*620 FILLER_20_70
*621 FILLER_20_82
*622 FILLER_20_85
*623 FILLER_20_93
*624 FILLER_20_96
*625 FILLER_21_103
*626 FILLER_21_109
*627 FILLER_21_113
*628 FILLER_21_12
*629 FILLER_21_125
*630 FILLER_21_137
*631 FILLER_21_149
*632 FILLER_21_161
*633 FILLER_21_167
*634 FILLER_21_169
*635 FILLER_21_181
*636 FILLER_21_193
*637 FILLER_21_205
*638 FILLER_21_217
*639 FILLER_21_223
*640 FILLER_21_225
*641 FILLER_21_27
*642 FILLER_21_3
*643 FILLER_21_39
*644 FILLER_21_51
*645 FILLER_21_55
*646 FILLER_21_57
*647 FILLER_21_63
*648 FILLER_21_75
*649 FILLER_21_81
*650 FILLER_21_88
*651 FILLER_22_110
*652 FILLER_22_122
*653 FILLER_22_13
*654 FILLER_22_134
*655 FILLER_22_141
*656 FILLER_22_153
*657 FILLER_22_165
*658 FILLER_22_177
*659 FILLER_22_189
*660 FILLER_22_195
*661 FILLER_22_197
*662 FILLER_22_209
*663 FILLER_22_221
*664 FILLER_22_26
*665 FILLER_22_29
*666 FILLER_22_3
*667 FILLER_22_34
*668 FILLER_22_38
*669 FILLER_22_47
*670 FILLER_22_59
*671 FILLER_22_67
*672 FILLER_22_82
*673 FILLER_22_85
*674 FILLER_22_9
*675 FILLER_22_91
*676 FILLER_22_98
*677 FILLER_23_105
*678 FILLER_23_111
*679 FILLER_23_113
*680 FILLER_23_125
*681 FILLER_23_137
*682 FILLER_23_149
*683 FILLER_23_161
*684 FILLER_23_167
*685 FILLER_23_169
*686 FILLER_23_17
*687 FILLER_23_181
*688 FILLER_23_193
*689 FILLER_23_205
*690 FILLER_23_217
*691 FILLER_23_223
*692 FILLER_23_225
*693 FILLER_23_3
*694 FILLER_23_30
*695 FILLER_23_43
*696 FILLER_23_52
*697 FILLER_23_57
*698 FILLER_23_68
*699 FILLER_23_7
*700 FILLER_23_77
*701 FILLER_23_89
*702 FILLER_23_98
*703 FILLER_24_109
*704 FILLER_24_121
*705 FILLER_24_133
*706 FILLER_24_139
*707 FILLER_24_141
*708 FILLER_24_15
*709 FILLER_24_153
*710 FILLER_24_165
*711 FILLER_24_177
*712 FILLER_24_189
*713 FILLER_24_195
*714 FILLER_24_197
*715 FILLER_24_209
*716 FILLER_24_221
*717 FILLER_24_27
*718 FILLER_24_29
*719 FILLER_24_3
*720 FILLER_24_48
*721 FILLER_24_57
*722 FILLER_24_65
*723 FILLER_24_69
*724 FILLER_24_74
*725 FILLER_24_82
*726 FILLER_24_85
*727 FILLER_24_97
*728 FILLER_25_101
*729 FILLER_25_109
*730 FILLER_25_113
*731 FILLER_25_125
*732 FILLER_25_137
*733 FILLER_25_149
*734 FILLER_25_15
*735 FILLER_25_161
*736 FILLER_25_167
*737 FILLER_25_169
*738 FILLER_25_181
*739 FILLER_25_193
*740 FILLER_25_205
*741 FILLER_25_217
*742 FILLER_25_223
*743 FILLER_25_225
*744 FILLER_25_27
*745 FILLER_25_3
*746 FILLER_25_45
*747 FILLER_25_49
*748 FILLER_25_53
*749 FILLER_25_57
*750 FILLER_25_61
*751 FILLER_25_65
*752 FILLER_25_77
*753 FILLER_25_89
*754 FILLER_26_109
*755 FILLER_26_121
*756 FILLER_26_133
*757 FILLER_26_139
*758 FILLER_26_141
*759 FILLER_26_15
*760 FILLER_26_153
*761 FILLER_26_165
*762 FILLER_26_177
*763 FILLER_26_189
*764 FILLER_26_195
*765 FILLER_26_197
*766 FILLER_26_209
*767 FILLER_26_221
*768 FILLER_26_27
*769 FILLER_26_29
*770 FILLER_26_3
*771 FILLER_26_41
*772 FILLER_26_53
*773 FILLER_26_65
*774 FILLER_26_77
*775 FILLER_26_83
*776 FILLER_26_85
*777 FILLER_26_97
*778 FILLER_27_105
*779 FILLER_27_111
*780 FILLER_27_113
*781 FILLER_27_125
*782 FILLER_27_137
*783 FILLER_27_149
*784 FILLER_27_15
*785 FILLER_27_161
*786 FILLER_27_167
*787 FILLER_27_169
*788 FILLER_27_181
*789 FILLER_27_193
*790 FILLER_27_205
*791 FILLER_27_217
*792 FILLER_27_223
*793 FILLER_27_225
*794 FILLER_27_27
*795 FILLER_27_3
*796 FILLER_27_39
*797 FILLER_27_51
*798 FILLER_27_55
*799 FILLER_27_57
*800 FILLER_27_69
*801 FILLER_27_81
*802 FILLER_27_93
*803 FILLER_28_109
*804 FILLER_28_121
*805 FILLER_28_133
*806 FILLER_28_139
*807 FILLER_28_141
*808 FILLER_28_15
*809 FILLER_28_153
*810 FILLER_28_165
*811 FILLER_28_177
*812 FILLER_28_189
*813 FILLER_28_195
*814 FILLER_28_197
*815 FILLER_28_209
*816 FILLER_28_221
*817 FILLER_28_27
*818 FILLER_28_29
*819 FILLER_28_3
*820 FILLER_28_41
*821 FILLER_28_53
*822 FILLER_28_65
*823 FILLER_28_77
*824 FILLER_28_83
*825 FILLER_28_85
*826 FILLER_28_97
*827 FILLER_29_105
*828 FILLER_29_111
*829 FILLER_29_113
*830 FILLER_29_125
*831 FILLER_29_137
*832 FILLER_29_149
*833 FILLER_29_15
*834 FILLER_29_161
*835 FILLER_29_167
*836 FILLER_29_169
*837 FILLER_29_181
*838 FILLER_29_193
*839 FILLER_29_205
*840 FILLER_29_217
*841 FILLER_29_223
*842 FILLER_29_225
*843 FILLER_29_27
*844 FILLER_29_3
*845 FILLER_29_39
*846 FILLER_29_51
*847 FILLER_29_55
*848 FILLER_29_57
*849 FILLER_29_69
*850 FILLER_29_81
*851 FILLER_29_93
*852 FILLER_2_112
*853 FILLER_2_116
*854 FILLER_2_124
*855 FILLER_2_135
*856 FILLER_2_139
*857 FILLER_2_141
*858 FILLER_2_149
*859 FILLER_2_15
*860 FILLER_2_155
*861 FILLER_2_161
*862 FILLER_2_172
*863 FILLER_2_181
*864 FILLER_2_194
*865 FILLER_2_197
*866 FILLER_2_204
*867 FILLER_2_212
*868 FILLER_2_218
*869 FILLER_2_230
*870 FILLER_2_26
*871 FILLER_2_29
*872 FILLER_2_3
*873 FILLER_2_49
*874 FILLER_2_53
*875 FILLER_2_60
*876 FILLER_2_80
*877 FILLER_2_85
*878 FILLER_2_93
*879 FILLER_30_109
*880 FILLER_30_121
*881 FILLER_30_133
*882 FILLER_30_139
*883 FILLER_30_141
*884 FILLER_30_15
*885 FILLER_30_153
*886 FILLER_30_165
*887 FILLER_30_177
*888 FILLER_30_189
*889 FILLER_30_195
*890 FILLER_30_197
*891 FILLER_30_209
*892 FILLER_30_221
*893 FILLER_30_27
*894 FILLER_30_29
*895 FILLER_30_3
*896 FILLER_30_41
*897 FILLER_30_53
*898 FILLER_30_65
*899 FILLER_30_77
*900 FILLER_30_83
*901 FILLER_30_85
*902 FILLER_30_97
*903 FILLER_31_105
*904 FILLER_31_111
*905 FILLER_31_113
*906 FILLER_31_125
*907 FILLER_31_13
*908 FILLER_31_137
*909 FILLER_31_149
*910 FILLER_31_161
*911 FILLER_31_167
*912 FILLER_31_169
*913 FILLER_31_181
*914 FILLER_31_193
*915 FILLER_31_205
*916 FILLER_31_217
*917 FILLER_31_223
*918 FILLER_31_225
*919 FILLER_31_25
*920 FILLER_31_3
*921 FILLER_31_37
*922 FILLER_31_49
*923 FILLER_31_55
*924 FILLER_31_57
*925 FILLER_31_69
*926 FILLER_31_81
*927 FILLER_31_93
*928 FILLER_32_109
*929 FILLER_32_121
*930 FILLER_32_133
*931 FILLER_32_139
*932 FILLER_32_141
*933 FILLER_32_15
*934 FILLER_32_153
*935 FILLER_32_165
*936 FILLER_32_177
*937 FILLER_32_189
*938 FILLER_32_195
*939 FILLER_32_197
*940 FILLER_32_209
*941 FILLER_32_221
*942 FILLER_32_27
*943 FILLER_32_29
*944 FILLER_32_3
*945 FILLER_32_41
*946 FILLER_32_53
*947 FILLER_32_65
*948 FILLER_32_77
*949 FILLER_32_83
*950 FILLER_32_85
*951 FILLER_32_97
*952 FILLER_33_105
*953 FILLER_33_111
*954 FILLER_33_113
*955 FILLER_33_125
*956 FILLER_33_137
*957 FILLER_33_149
*958 FILLER_33_15
*959 FILLER_33_161
*960 FILLER_33_167
*961 FILLER_33_169
*962 FILLER_33_181
*963 FILLER_33_193
*964 FILLER_33_205
*965 FILLER_33_217
*966 FILLER_33_223
*967 FILLER_33_225
*968 FILLER_33_27
*969 FILLER_33_3
*970 FILLER_33_39
*971 FILLER_33_51
*972 FILLER_33_55
*973 FILLER_33_57
*974 FILLER_33_69
*975 FILLER_33_81
*976 FILLER_33_93
*977 FILLER_34_109
*978 FILLER_34_121
*979 FILLER_34_133
*980 FILLER_34_139
*981 FILLER_34_141
*982 FILLER_34_15
*983 FILLER_34_153
*984 FILLER_34_165
*985 FILLER_34_177
*986 FILLER_34_189
*987 FILLER_34_195
*988 FILLER_34_197
*989 FILLER_34_209
*990 FILLER_34_221
*991 FILLER_34_27
*992 FILLER_34_29
*993 FILLER_34_3
*994 FILLER_34_41
*995 FILLER_34_53
*996 FILLER_34_65
*997 FILLER_34_77
*998 FILLER_34_83
*999 FILLER_34_85
*1000 FILLER_34_97
*1001 FILLER_35_109
*1002 FILLER_35_113
*1003 FILLER_35_125
*1004 FILLER_35_137
*1005 FILLER_35_141
*1006 FILLER_35_15
*1007 FILLER_35_153
*1008 FILLER_35_165
*1009 FILLER_35_169
*1010 FILLER_35_181
*1011 FILLER_35_193
*1012 FILLER_35_197
*1013 FILLER_35_209
*1014 FILLER_35_221
*1015 FILLER_35_225
*1016 FILLER_35_27
*1017 FILLER_35_29
*1018 FILLER_35_3
*1019 FILLER_35_41
*1020 FILLER_35_53
*1021 FILLER_35_57
*1022 FILLER_35_69
*1023 FILLER_35_81
*1024 FILLER_35_85
*1025 FILLER_35_97
*1026 FILLER_3_11
*1027 FILLER_3_110
*1028 FILLER_3_113
*1029 FILLER_3_123
*1030 FILLER_3_134
*1031 FILLER_3_145
*1032 FILLER_3_151
*1033 FILLER_3_161
*1034 FILLER_3_167
*1035 FILLER_3_169
*1036 FILLER_3_175
*1037 FILLER_3_181
*1038 FILLER_3_197
*1039 FILLER_3_204
*1040 FILLER_3_216
*1041 FILLER_3_225
*1042 FILLER_3_3
*1043 FILLER_3_30
*1044 FILLER_3_54
*1045 FILLER_3_57
*1046 FILLER_3_69
*1047 FILLER_3_89
*1048 FILLER_4_109
*1049 FILLER_4_121
*1050 FILLER_4_133
*1051 FILLER_4_138
*1052 FILLER_4_141
*1053 FILLER_4_15
*1054 FILLER_4_151
*1055 FILLER_4_155
*1056 FILLER_4_163
*1057 FILLER_4_167
*1058 FILLER_4_171
*1059 FILLER_4_178
*1060 FILLER_4_185
*1061 FILLER_4_194
*1062 FILLER_4_197
*1063 FILLER_4_202
*1064 FILLER_4_214
*1065 FILLER_4_226
*1066 FILLER_4_232
*1067 FILLER_4_27
*1068 FILLER_4_29
*1069 FILLER_4_3
*1070 FILLER_4_35
*1071 FILLER_4_49
*1072 FILLER_4_69
*1073 FILLER_4_81
*1074 FILLER_4_85
*1075 FILLER_4_97
*1076 FILLER_5_110
*1077 FILLER_5_113
*1078 FILLER_5_125
*1079 FILLER_5_136
*1080 FILLER_5_140
*1081 FILLER_5_150
*1082 FILLER_5_166
*1083 FILLER_5_169
*1084 FILLER_5_173
*1085 FILLER_5_182
*1086 FILLER_5_193
*1087 FILLER_5_205
*1088 FILLER_5_21
*1089 FILLER_5_217
*1090 FILLER_5_223
*1091 FILLER_5_225
*1092 FILLER_5_3
*1093 FILLER_5_31
*1094 FILLER_5_40
*1095 FILLER_5_49
*1096 FILLER_5_55
*1097 FILLER_5_57
*1098 FILLER_5_62
*1099 FILLER_5_68
*1100 FILLER_5_72
*1101 FILLER_5_89
*1102 FILLER_5_93
*1103 FILLER_6_113
*1104 FILLER_6_122
*1105 FILLER_6_134
*1106 FILLER_6_141
*1107 FILLER_6_15
*1108 FILLER_6_152
*1109 FILLER_6_167
*1110 FILLER_6_174
*1111 FILLER_6_188
*1112 FILLER_6_197
*1113 FILLER_6_208
*1114 FILLER_6_219
*1115 FILLER_6_231
*1116 FILLER_6_25
*1117 FILLER_6_29
*1118 FILLER_6_3
*1119 FILLER_6_41
*1120 FILLER_6_55
*1121 FILLER_6_75
*1122 FILLER_6_83
*1123 FILLER_6_85
*1124 FILLER_7_110
*1125 FILLER_7_113
*1126 FILLER_7_125
*1127 FILLER_7_134
*1128 FILLER_7_145
*1129 FILLER_7_153
*1130 FILLER_7_162
*1131 FILLER_7_169
*1132 FILLER_7_179
*1133 FILLER_7_187
*1134 FILLER_7_197
*1135 FILLER_7_205
*1136 FILLER_7_21
*1137 FILLER_7_210
*1138 FILLER_7_217
*1139 FILLER_7_223
*1140 FILLER_7_225
*1141 FILLER_7_28
*1142 FILLER_7_3
*1143 FILLER_7_34
*1144 FILLER_7_54
*1145 FILLER_7_57
*1146 FILLER_7_65
*1147 FILLER_7_71
*1148 FILLER_7_89
*1149 FILLER_8_110
*1150 FILLER_8_122
*1151 FILLER_8_128
*1152 FILLER_8_133
*1153 FILLER_8_139
*1154 FILLER_8_141
*1155 FILLER_8_146
*1156 FILLER_8_15
*1157 FILLER_8_154
*1158 FILLER_8_161
*1159 FILLER_8_168
*1160 FILLER_8_180
*1161 FILLER_8_19
*1162 FILLER_8_192
*1163 FILLER_8_197
*1164 FILLER_8_206
*1165 FILLER_8_218
*1166 FILLER_8_230
*1167 FILLER_8_26
*1168 FILLER_8_29
*1169 FILLER_8_3
*1170 FILLER_8_35
*1171 FILLER_8_44
*1172 FILLER_8_72
*1173 FILLER_8_78
*1174 FILLER_8_85
*1175 FILLER_8_93
*1176 FILLER_9_105
*1177 FILLER_9_111
*1178 FILLER_9_113
*1179 FILLER_9_12
*1180 FILLER_9_125
*1181 FILLER_9_135
*1182 FILLER_9_142
*1183 FILLER_9_150
*1184 FILLER_9_157
*1185 FILLER_9_166
*1186 FILLER_9_169
*1187 FILLER_9_184
*1188 FILLER_9_195
*1189 FILLER_9_203
*1190 FILLER_9_210
*1191 FILLER_9_222
*1192 FILLER_9_225
*1193 FILLER_9_3
*1194 FILLER_9_36
*1195 FILLER_9_49
*1196 FILLER_9_55
*1197 FILLER_9_57
*1198 FILLER_9_62
*1199 FILLER_9_68
*1200 FILLER_9_72
*1201 FILLER_9_93
*1202 PHY_0
*1203 PHY_1
*1204 PHY_10
*1205 PHY_11
*1206 PHY_12
*1207 PHY_13
*1208 PHY_14
*1209 PHY_15
*1210 PHY_16
*1211 PHY_17
*1212 PHY_18
*1213 PHY_19
*1214 PHY_2
*1215 PHY_20
*1216 PHY_21
*1217 PHY_22
*1218 PHY_23
*1219 PHY_24
*1220 PHY_25
*1221 PHY_26
*1222 PHY_27
*1223 PHY_28
*1224 PHY_29
*1225 PHY_3
*1226 PHY_30
*1227 PHY_31
*1228 PHY_32
*1229 PHY_33
*1230 PHY_34
*1231 PHY_35
*1232 PHY_36
*1233 PHY_37
*1234 PHY_38
*1235 PHY_39
*1236 PHY_4
*1237 PHY_40
*1238 PHY_41
*1239 PHY_42
*1240 PHY_43
*1241 PHY_44
*1242 PHY_45
*1243 PHY_46
*1244 PHY_47
*1245 PHY_48
*1246 PHY_49
*1247 PHY_5
*1248 PHY_50
*1249 PHY_51
*1250 PHY_52
*1251 PHY_53
*1252 PHY_54
*1253 PHY_55
*1254 PHY_56
*1255 PHY_57
*1256 PHY_58
*1257 PHY_59
*1258 PHY_6
*1259 PHY_60
*1260 PHY_61
*1261 PHY_62
*1262 PHY_63
*1263 PHY_64
*1264 PHY_65
*1265 PHY_66
*1266 PHY_67
*1267 PHY_68
*1268 PHY_69
*1269 PHY_7
*1270 PHY_70
*1271 PHY_71
*1272 PHY_8
*1273 PHY_9
*1274 TAP_100
*1275 TAP_101
*1276 TAP_102
*1277 TAP_103
*1278 TAP_104
*1279 TAP_105
*1280 TAP_106
*1281 TAP_107
*1282 TAP_108
*1283 TAP_109
*1284 TAP_110
*1285 TAP_111
*1286 TAP_112
*1287 TAP_113
*1288 TAP_114
*1289 TAP_115
*1290 TAP_116
*1291 TAP_117
*1292 TAP_118
*1293 TAP_119
*1294 TAP_120
*1295 TAP_121
*1296 TAP_122
*1297 TAP_123
*1298 TAP_124
*1299 TAP_125
*1300 TAP_126
*1301 TAP_127
*1302 TAP_128
*1303 TAP_129
*1304 TAP_130
*1305 TAP_131
*1306 TAP_132
*1307 TAP_133
*1308 TAP_134
*1309 TAP_135
*1310 TAP_136
*1311 TAP_137
*1312 TAP_138
*1313 TAP_139
*1314 TAP_140
*1315 TAP_141
*1316 TAP_142
*1317 TAP_143
*1318 TAP_144
*1319 TAP_145
*1320 TAP_146
*1321 TAP_147
*1322 TAP_148
*1323 TAP_149
*1324 TAP_150
*1325 TAP_151
*1326 TAP_152
*1327 TAP_153
*1328 TAP_154
*1329 TAP_155
*1330 TAP_156
*1331 TAP_157
*1332 TAP_158
*1333 TAP_159
*1334 TAP_160
*1335 TAP_161
*1336 TAP_162
*1337 TAP_163
*1338 TAP_164
*1339 TAP_165
*1340 TAP_166
*1341 TAP_167
*1342 TAP_168
*1343 TAP_169
*1344 TAP_170
*1345 TAP_171
*1346 TAP_172
*1347 TAP_173
*1348 TAP_174
*1349 TAP_175
*1350 TAP_176
*1351 TAP_177
*1352 TAP_178
*1353 TAP_179
*1354 TAP_180
*1355 TAP_181
*1356 TAP_182
*1357 TAP_183
*1358 TAP_184
*1359 TAP_185
*1360 TAP_186
*1361 TAP_187
*1362 TAP_188
*1363 TAP_189
*1364 TAP_190
*1365 TAP_191
*1366 TAP_192
*1367 TAP_193
*1368 TAP_194
*1369 TAP_195
*1370 TAP_196
*1371 TAP_197
*1372 TAP_198
*1373 TAP_199
*1374 TAP_200
*1375 TAP_201
*1376 TAP_202
*1377 TAP_203
*1378 TAP_204
*1379 TAP_205
*1380 TAP_206
*1381 TAP_207
*1382 TAP_208
*1383 TAP_209
*1384 TAP_210
*1385 TAP_211
*1386 TAP_212
*1387 TAP_213
*1388 TAP_214
*1389 TAP_215
*1390 TAP_216
*1391 TAP_217
*1392 TAP_218
*1393 TAP_219
*1394 TAP_220
*1395 TAP_221
*1396 TAP_222
*1397 TAP_223
*1398 TAP_72
*1399 TAP_73
*1400 TAP_74
*1401 TAP_75
*1402 TAP_76
*1403 TAP_77
*1404 TAP_78
*1405 TAP_79
*1406 TAP_80
*1407 TAP_81
*1408 TAP_82
*1409 TAP_83
*1410 TAP_84
*1411 TAP_85
*1412 TAP_86
*1413 TAP_87
*1414 TAP_88
*1415 TAP_89
*1416 TAP_90
*1417 TAP_91
*1418 TAP_92
*1419 TAP_93
*1420 TAP_94
*1421 TAP_95
*1422 TAP_96
*1423 TAP_97
*1424 TAP_98
*1425 TAP_99
*1426 _220_
*1427 _221_
*1428 _222_
*1429 _223_
*1430 _224_
*1431 _225_
*1432 _226_
*1433 _227_
*1434 _228_
*1435 _229_
*1436 _230_
*1437 _231_
*1438 _232_
*1439 _233_
*1440 _234_
*1441 _235_
*1442 _236_
*1443 _237_
*1444 _238_
*1445 _239_
*1446 _240_
*1447 _241_
*1448 _242_
*1449 _243_
*1450 _244_
*1451 _245_
*1452 _246_
*1453 _247_
*1454 _248_
*1455 _249_
*1456 _250_
*1457 _251_
*1458 _252_
*1459 _253_
*1460 _254_
*1461 _255_
*1462 _256_
*1463 _257_
*1464 _258_
*1465 _259_
*1466 _260_
*1467 _261_
*1468 _262_
*1469 _263_
*1470 _264_
*1471 _265_
*1472 _266_
*1473 _267_
*1474 _268_
*1475 _269_
*1476 _270_
*1477 _271_
*1478 _272_
*1479 _273_
*1480 _274_
*1481 _275_
*1482 _276_
*1483 _277_
*1484 _278_
*1485 _279_
*1486 _280_
*1487 _281_
*1488 _282_
*1489 _283_
*1490 _284_
*1491 _285_
*1492 _286_
*1493 _287_
*1494 _288_
*1495 _289_
*1496 _290_
*1497 _291_
*1498 _292_
*1499 _293_
*1500 _294_
*1501 _295_
*1502 _296_
*1503 _297_
*1504 _298_
*1505 _299_
*1506 _300_
*1507 _301_
*1508 _302_
*1509 _303_
*1510 _304_
*1511 _305_
*1512 _306_
*1513 _307_
*1514 _308_
*1515 _309_
*1516 _310_
*1517 _311_
*1518 _312_
*1519 _313_
*1520 _314_
*1521 _315_
*1522 _316_
*1523 _317_
*1524 _318_
*1525 _319_
*1526 _320_
*1527 _321_
*1528 _322_
*1529 _323_
*1530 _324_
*1531 _325_
*1532 _326_
*1533 _327_
*1534 _328_
*1535 _329_
*1536 _330_
*1537 _331_
*1538 _332_
*1539 _333_
*1540 _334_
*1541 _335_
*1542 _336_
*1543 _337_
*1544 _338_
*1545 _339_
*1546 _340_
*1547 _341_
*1548 _342_
*1549 _343_
*1550 _344_
*1551 _345_
*1552 _346_
*1553 _347_
*1554 _348_
*1555 _349_
*1556 _350_
*1557 _351_
*1558 _352_
*1559 _353_
*1560 _354_
*1561 _355_
*1562 _356_
*1563 _357_
*1564 _358_
*1565 _359_
*1566 _360_
*1567 _361_
*1568 _362_
*1569 _363_
*1570 _364_
*1571 _365_
*1572 _366_
*1573 _367_
*1574 _368_
*1575 _369_
*1576 _370_
*1577 _371_
*1578 _372_
*1579 _373_
*1580 _374_
*1581 _375_
*1582 _376_
*1583 _377_
*1584 _378_
*1585 _379_
*1586 _380_
*1587 _381_
*1588 _382_
*1589 _383_
*1590 _384_
*1591 _385_
*1592 _386_
*1593 _387_
*1594 _388_
*1595 _389_
*1596 _390_
*1597 _391_
*1598 _392_
*1599 _393_
*1600 _394_
*1601 _395_
*1602 _396_
*1603 _397_
*1604 _398_
*1605 _399_
*1606 _400_
*1607 _401_
*1608 _402_
*1609 _403_
*1610 _404_
*1611 _405_
*1612 _406_
*1613 _407_
*1614 _408_
*1615 _409_
*1616 _410_
*1617 _411_
*1618 _412_
*1619 _413_
*1620 _414_
*1621 _415_
*1622 _416_
*1623 _417_
*1624 _418_
*1625 _419_
*1626 _420_
*1627 _421_
*1628 _422_
*1629 _423_
*1630 _424_
*1631 _425_
*1632 _426_
*1633 _427_
*1634 _428_
*1635 _429_
*1636 _430_
*1637 _431_
*1638 _432_
*1639 _433_
*1640 _434_
*1641 _435_
*1642 _436_
*1643 _437_
*1644 _438_
*1645 _439_
*1646 _440_
*1647 _441_
*1648 _442_
*1649 _443_
*1650 _444_
*1651 _445_
*1652 _446_
*1653 _447_
*1654 _448_
*1655 _449_
*1656 _450_
*1657 _451_
*1658 _452_
*1659 _453_
*1660 _454_
*1661 _455_
*1662 _456_
*1663 _457_
*1664 _458_
*1665 _459_
*1666 _460_
*1667 _461_
*1668 _462_
*1669 _463_
*1670 _464_
*1671 _465_
*1672 _466_
*1673 _467_
*1674 _468_
*1675 _469_
*1676 _470_
*1677 _471_
*1678 _472_
*1679 _473_
*1680 _474_
*1681 _475_
*1682 _476_
*1683 _477_
*1684 _478_
*1685 _479_
*1686 _480_
*1687 clkbuf_0_clk
*1688 clkbuf_2_0__f_clk
*1689 clkbuf_2_1__f_clk
*1690 clkbuf_2_2__f_clk
*1691 clkbuf_2_3__f_clk
*1692 input1

*PORTS
OP O
clk I
rst I

*D_NET *1 0.00072005
*CONN
*P OP O
*I *1540:X O *D sky130_fd_sc_hd__buf_2
*CAP
1 OP 0.000360025
2 *1540:X 0.000360025
*RES
1 *1540:X OP 24.4137 
*END

*D_NET *2 0.00414138
*CONN
*P clk I
*I *290:DIODE I *D sky130_fd_sc_hd__diode_2
*I *1687:A I *D sky130_fd_sc_hd__clkbuf_16
*CAP
1 clk 0.00159239
2 *290:DIODE 0.000478295
3 *1687:A 0
4 *2:16 0.000478295
5 *2:14 0.00159239
6 *290:DIODE *229:13 0
7 *2:14 *1628:B1 0
8 *2:14 *1652:CLK 0
9 *2:14 *1673:D 0
10 *2:14 *1676:D 0
11 *2:14 *241:22 0
12 *2:14 *243:38 0
13 *2:14 *256:26 0
14 *2:14 *256:28 0
15 *2:14 *256:35 0
*RES
1 clk *2:14 45.6271 
2 *2:14 *2:16 9 
3 *2:16 *1687:A 9.3 
4 *2:16 *290:DIODE 19.2821 
*END

*D_NET *3 0.00166091
*CONN
*P rst I
*I *291:DIODE I *D sky130_fd_sc_hd__diode_2
*I *1692:A I *D sky130_fd_sc_hd__buf_2
*CAP
1 rst 0.000428729
2 *291:DIODE 0.000342115
3 *1692:A 5.96103e-05
4 *3:7 0.000830454
5 *291:DIODE *1576:A1 0
6 *291:DIODE *1576:S 0
7 *291:DIODE *1612:A2 0
8 *291:DIODE *6:21 0
9 *291:DIODE *7:26 0
10 *291:DIODE *163:36 0
11 *1692:A *1612:A2 0
12 *1692:A *6:21 0
*RES
1 rst *3:7 5.12707 
2 *3:7 *1692:A 19.7196 
3 *3:7 *291:DIODE 26.6304 
*END

*D_NET *6 0.00173414
*CONN
*I *1564:B I *D sky130_fd_sc_hd__or2_1
*I *1577:A0 I *D sky130_fd_sc_hd__mux2_1
*I *1611:B I *D sky130_fd_sc_hd__nand2_1
*I *1665:Q O *D sky130_fd_sc_hd__dfxtp_1
*CAP
1 *1564:B 8.17123e-05
2 *1577:A0 0.000104386
3 *1611:B 0.000105242
4 *1665:Q 0.000386822
5 *6:21 0.000375006
6 *6:8 0.000680971
7 *1564:B *7:20 0
8 *1611:B *173:11 0
9 *6:8 *7:8 0
10 *6:8 *41:6 0
11 *6:8 *242:34 0
12 *6:21 *1569:A2 0
13 *6:21 *1612:A2 0
14 *6:21 *7:8 0
15 *6:21 *7:20 0
16 *6:21 *41:6 0
17 *6:21 *163:36 0
18 *6:21 *173:11 0
19 *291:DIODE *6:21 0
20 *1692:A *6:21 0
*RES
1 *1665:Q *6:8 27.1214 
2 *6:8 *1611:B 20.4964 
3 *6:8 *6:21 13.9821 
4 *6:21 *1577:A0 11.4786 
5 *6:21 *1564:B 11.0679 
*END

*D_NET *7 0.00262474
*CONN
*I *1564:A I *D sky130_fd_sc_hd__or2_1
*I *1576:A0 I *D sky130_fd_sc_hd__mux2_1
*I *1584:A0 I *D sky130_fd_sc_hd__mux2_1
*I *1611:A I *D sky130_fd_sc_hd__nand2_1
*I *1666:Q O *D sky130_fd_sc_hd__dfxtp_1
*CAP
1 *1564:A 0
2 *1576:A0 0
3 *1584:A0 0.000361245
4 *1611:A 0
5 *1666:Q 0.000324286
6 *7:26 0.000714776
7 *7:20 0.000626837
8 *7:8 0.000597591
9 *1584:A0 *1576:S 0
10 *1584:A0 *1584:A1 0
11 *1584:A0 *1584:S 0
12 *1584:A0 *1585:A 0
13 *1584:A0 *1591:S 0
14 *1584:A0 *1597:A1 0
15 *1584:A0 *41:6 0
16 *1584:A0 *142:6 0
17 *1584:A0 *164:10 0
18 *1584:A0 *164:22 0
19 *7:8 *1635:C1 0
20 *7:8 *41:6 0
21 *7:20 *1612:A1 0
22 *7:20 *1612:A2 0
23 *7:20 *1635:C1 0
24 *7:26 *1576:A1 0
25 *7:26 *1576:S 0
26 *7:26 *1612:A1 0
27 *7:26 *1612:A2 0
28 *7:26 *1613:C1 0
29 *7:26 *164:39 0
30 *7:26 *164:58 0
31 *291:DIODE *7:26 0
32 *1564:B *7:20 0
33 *6:8 *7:8 0
34 *6:21 *7:8 0
35 *6:21 *7:20 0
*RES
1 *1666:Q *7:8 26.55 
2 *7:8 *1611:A 18.3 
3 *7:8 *7:20 15.875 
4 *7:20 *7:26 26.3929 
5 *7:26 *1584:A0 36.3714 
6 *7:26 *1576:A0 9.3 
7 *7:20 *1564:A 9.3 
*END

*D_NET *8 0.00347639
*CONN