*SPEF "ieee 1481-1999"
*DESIGN "tune_player"
*DATE "11:11:11 Fri 11 11, 1111"
*VENDOR "OpenRCX"
*PROGRAM "Parallel Extraction"
*VERSION "1.0"
*DESIGN_FLOW "NAME_SCOPE LOCAL" "PIN_CAP NONE"
*DIVIDER /
*DELIMITER :
*BUS_DELIMITER []
*T_UNIT 1 NS
*C_UNIT 1 PF
*R_UNIT 1 OHM
*L_UNIT 1 HENRY

*NAME_MAP
*1 OP
*2 clk
*3 rst
*6 LFSR\[0\]
*7 LFSR\[1\]
*8 LFSR\[2\]
*9 LFSR\[3\]
*10 LFSR\[4\]
*11 LFSR\[5\]
*12 LFSR\[6\]
*13 OP_reg
*14 PC\[0\]
*15 PC\[1\]
*16 PC\[2\]
*17 PC\[3\]
*18 PC\[4\]
*19 PC\[5\]
*20 _000_
*21 _001_
*22 _002_
*23 _003_
*24 _004_
*25 _005_
*26 _006_
*27 _007_
*28 _008_
*29 _009_
*30 _010_
*31 _011_
*32 _012_
*33 _013_
*34 _014_
*35 _015_
*36 _016_
*37 _017_
*38 _018_
*39 _019_
*40 _020_
*41 _021_
*42 _022_
*43 _023_
*44 _024_
*45 _025_
*46 _026_
*47 _027_
*48 _028_
*49 _029_
*50 _030_
*51 _031_
*52 _032_
*53 _033_
*54 _034_
*55 _035_
*56 _036_
*57 _037_
*58 _038_
*59 _039_
*60 _040_
*61 _041_
*62 _042_
*63 _043_
*64 _044_
*65 _045_
*66 _046_
*67 _047_
*68 _048_
*69 _049_
*70 _050_
*71 _051_
*72 _052_
*73 _053_
*74 _054_
*75 _055_
*76 _056_
*77 _057_
*78 _058_
*79 _059_
*80 _060_
*81 _061_
*82 _062_
*83 _063_
*84 _064_
*85 _065_
*86 _066_
*87 _067_
*88 _068_
*89 _069_
*90 _070_
*91 _071_
*92 _072_
*93 _073_
*94 _074_
*95 _075_
*96 _076_
*97 _077_
*98 _078_
*99 _079_
*100 _080_
*101 _081_
*102 _082_
*103 _083_
*104 _084_
*105 _085_
*106 _086_
*107 _087_
*108 _088_
*109 _089_
*110 _090_
*111 _091_
*112 _092_
*113 _093_
*114 _094_
*115 _095_
*116 _096_
*117 _097_
*118 _098_
*119 _099_
*120 _100_
*121 _101_
*122 _102_
*123 _103_
*124 _104_
*125 _105_
*126 _106_
*127 _107_
*128 _108_
*129 _109_
*130 _110_
*131 _111_
*132 _112_
*133 _113_
*134 _114_
*135 _115_
*136 _116_
*137 _117_
*138 _118_
*139 _119_
*140 _120_
*141 _121_
*142 _122_
*143 _123_
*144 _124_
*145 _125_
*146 _126_
*147 _127_
*148 _128_
*149 _129_
*150 _130_
*151 _131_
*152 _132_
*153 _133_
*154 _134_
*155 _135_
*156 _136_
*157 _137_
*158 _138_
*159 _139_
*160 _140_
*161 _141_
*162 _142_
*163 _143_
*164 _144_
*165 _145_
*166 _146_
*167 _147_
*168 _148_
*169 _149_
*170 _150_
*171 _151_
*172 _152_
*173 _153_
*174 _154_
*175 _155_
*176 _156_
*177 _157_
*178 _158_
*179 _159_
*180 _160_
*181 _161_
*182 _162_
*183 _163_
*184 _164_
*185 _165_
*186 _166_
*187 _167_
*188 _168_
*189 _169_
*190 _170_
*191 _171_
*192 _172_
*193 _173_
*194 _174_
*195 _175_
*196 _176_
*197 _177_
*198 _178_
*199 _179_
*200 _180_
*201 _181_
*202 _182_
*203 _183_
*204 _184_
*205 _185_
*206 _186_
*207 _187_
*208 _188_
*209 _189_
*210 _190_
*211 _191_
*212 _192_
*213 _193_
*214 _194_
*215 _195_
*216 _196_
*217 _197_
*218 _198_
*219 clknet_0_clk
*220 clknet_2_0__leaf_clk
*221 clknet_2_1__leaf_clk
*222 clknet_2_2__leaf_clk
*223 clknet_2_3__leaf_clk
*224 clock_div\[0\]
*225 clock_div\[1\]
*226 clock_div\[2\]
*227 clock_div\[3\]
*228 clock_div\[4\]
*229 clock_div\[5\]
*230 clock_div\[6\]
*231 clock_div\[7\]
*232 clock_div\[8\]
*233 just_inc
*234 just_rst
*235 net1
*236 net2
*237 net3
*238 net4
*239 net5
*240 net6
*241 net7
*242 net8
*243 net9
*244 prev_clk_div
*245 rhythm_LFSR\[0\]
*246 rhythm_LFSR\[1\]
*247 rhythm_LFSR\[2\]
*248 rhythm_LFSR\[3\]
*249 tempo_LFSR\[0\]
*250 tempo_LFSR\[1\]
*251 tempo_LFSR\[2\]
*252 tempo_LFSR\[3\]
*253 tune_ROM\[0\]
*254 tune_ROM\[1\]
*255 tune_ROM\[2\]
*256 tune_ROM\[3\]
*257 tune_ROM\[4\]
*258 tune_ROM\[5\]
*259 ANTENNA_1
*260 FILLER_0_108
*261 FILLER_0_11
*262 FILLER_0_113
*263 FILLER_0_121
*264 FILLER_0_133
*265 FILLER_0_139
*266 FILLER_0_141
*267 FILLER_0_155
*268 FILLER_0_16
*269 FILLER_0_167
*270 FILLER_0_169
*271 FILLER_0_181
*272 FILLER_0_193
*273 FILLER_0_197
*274 FILLER_0_209
*275 FILLER_0_26
*276 FILLER_0_29
*277 FILLER_0_3
*278 FILLER_0_35
*279 FILLER_0_52
*280 FILLER_0_57
*281 FILLER_0_69
*282 FILLER_0_74
*283 FILLER_0_82
*284 FILLER_0_85
*285 FILLER_0_91
*286 FILLER_10_112
*287 FILLER_10_124
*288 FILLER_10_134
*289 FILLER_10_141
*290 FILLER_10_15
*291 FILLER_10_160
*292 FILLER_10_168
*293 FILLER_10_174
*294 FILLER_10_181
*295 FILLER_10_194
*296 FILLER_10_197
*297 FILLER_10_202
*298 FILLER_10_210
*299 FILLER_10_27
*300 FILLER_10_29
*301 FILLER_10_3
*302 FILLER_10_37
*303 FILLER_10_56
*304 FILLER_10_81
*305 FILLER_10_85
*306 FILLER_10_93
*307 FILLER_11_110
*308 FILLER_11_113
*309 FILLER_11_125
*310 FILLER_11_134
*311 FILLER_11_146
*312 FILLER_11_15
*313 FILLER_11_158
*314 FILLER_11_166
*315 FILLER_11_169
*316 FILLER_11_176
*317 FILLER_11_184
*318 FILLER_11_19
*319 FILLER_11_194
*320 FILLER_11_206
*321 FILLER_11_3
*322 FILLER_11_36
*323 FILLER_11_48
*324 FILLER_11_57
*325 FILLER_11_69
*326 FILLER_11_81
*327 FILLER_11_93
*328 FILLER_12_117
*329 FILLER_12_129
*330 FILLER_12_137
*331 FILLER_12_141
*332 FILLER_12_149
*333 FILLER_12_161
*334 FILLER_12_167
*335 FILLER_12_184
*336 FILLER_12_197
*337 FILLER_12_205
*338 FILLER_12_21
*339 FILLER_12_211
*340 FILLER_12_27
*341 FILLER_12_29
*342 FILLER_12_3
*343 FILLER_12_37
*344 FILLER_12_54
*345 FILLER_12_62
*346 FILLER_12_81
*347 FILLER_12_85
*348 FILLER_12_97
*349 FILLER_13_103
*350 FILLER_13_111
*351 FILLER_13_113
*352 FILLER_13_125
*353 FILLER_13_132
*354 FILLER_13_140
*355 FILLER_13_146
*356 FILLER_13_15
*357 FILLER_13_157
*358 FILLER_13_166
*359 FILLER_13_169
*360 FILLER_13_175
*361 FILLER_13_187
*362 FILLER_13_210
*363 FILLER_13_3
*364 FILLER_13_35
*365 FILLER_13_47
*366 FILLER_13_55
*367 FILLER_13_57
*368 FILLER_13_69
*369 FILLER_13_91
*370 FILLER_14_116
*371 FILLER_14_124
*372 FILLER_14_133
*373 FILLER_14_139
*374 FILLER_14_141
*375 FILLER_14_150
*376 FILLER_14_154
*377 FILLER_14_163
*378 FILLER_14_172
*379 FILLER_14_176
*380 FILLER_14_192
*381 FILLER_14_197
*382 FILLER_14_204
*383 FILLER_14_21
*384 FILLER_14_27
*385 FILLER_14_29
*386 FILLER_14_3
*387 FILLER_14_41
*388 FILLER_14_60
*389 FILLER_14_80
*390 FILLER_14_85
*391 FILLER_15_110
*392 FILLER_15_113
*393 FILLER_15_125
*394 FILLER_15_137
*395 FILLER_15_143
*396 FILLER_15_155
*397 FILLER_15_167
*398 FILLER_15_169
*399 FILLER_15_174
*400 FILLER_15_186
*401 FILLER_15_195
*402 FILLER_15_206
*403 FILLER_15_21
*404 FILLER_15_3
*405 FILLER_15_33
*406 FILLER_15_45
*407 FILLER_15_53
*408 FILLER_15_57
*409 FILLER_15_69
*410 FILLER_15_89
*411 FILLER_15_9
*412 FILLER_15_93
*413 FILLER_16_109
*414 FILLER_16_12
*415 FILLER_16_121
*416 FILLER_16_125
*417 FILLER_16_133
*418 FILLER_16_138
*419 FILLER_16_141
*420 FILLER_16_150
*421 FILLER_16_158
*422 FILLER_16_165
*423 FILLER_16_177
*424 FILLER_16_182
*425 FILLER_16_194
*426 FILLER_16_197
*427 FILLER_16_208
*428 FILLER_16_24
*429 FILLER_16_29
*430 FILLER_16_3
*431 FILLER_16_37
*432 FILLER_16_49
*433 FILLER_16_7
*434 FILLER_16_70
*435 FILLER_16_82
*436 FILLER_16_85
*437 FILLER_16_97
*438 FILLER_17_107
*439 FILLER_17_111
*440 FILLER_17_113
*441 FILLER_17_124
*442 FILLER_17_132
*443 FILLER_17_137
*444 FILLER_17_144
*445 FILLER_17_15
*446 FILLER_17_150
*447 FILLER_17_154
*448 FILLER_17_166
*449 FILLER_17_169
*450 FILLER_17_175
*451 FILLER_17_182
*452 FILLER_17_199
*453 FILLER_17_210
*454 FILLER_17_27
*455 FILLER_17_3
*456 FILLER_17_33
*457 FILLER_17_41
*458 FILLER_17_51
*459 FILLER_17_55
*460 FILLER_17_57
*461 FILLER_17_74
*462 FILLER_17_82
*463 FILLER_17_9
*464 FILLER_17_91
*465 FILLER_17_99
*466 FILLER_18_112
*467 FILLER_18_123
*468 FILLER_18_129
*469 FILLER_18_136
*470 FILLER_18_141
*471 FILLER_18_151
*472 FILLER_18_158
*473 FILLER_18_162
*474 FILLER_18_17
*475 FILLER_18_170
*476 FILLER_18_178
*477 FILLER_18_187
*478 FILLER_18_195
*479 FILLER_18_197
*480 FILLER_18_201
*481 FILLER_18_208
*482 FILLER_18_25
*483 FILLER_18_29
*484 FILLER_18_3
*485 FILLER_18_37
*486 FILLER_18_49
*487 FILLER_18_7
*488 FILLER_18_74
*489 FILLER_18_82
*490 FILLER_18_85
*491 FILLER_18_95
*492 FILLER_19_102
*493 FILLER_19_11
*494 FILLER_19_110
*495 FILLER_19_113
*496 FILLER_19_119
*497 FILLER_19_131
*498 FILLER_19_139
*499 FILLER_19_151
*500 FILLER_19_164
*501 FILLER_19_169
*502 FILLER_19_178
*503 FILLER_19_186
*504 FILLER_19_192
*505 FILLER_19_200
*506 FILLER_19_208
*507 FILLER_19_23
*508 FILLER_19_27
*509 FILLER_19_3
*510 FILLER_19_37
*511 FILLER_19_50
*512 FILLER_19_57
*513 FILLER_19_68
*514 FILLER_19_80
*515 FILLER_19_90
*516 FILLER_1_10
*517 FILLER_1_103
*518 FILLER_1_111
*519 FILLER_1_113
*520 FILLER_1_121
*521 FILLER_1_128
*522 FILLER_1_137
*523 FILLER_1_144
*524 FILLER_1_156
*525 FILLER_1_165
*526 FILLER_1_169
*527 FILLER_1_178
*528 FILLER_1_190
*529 FILLER_1_202
*530 FILLER_1_210
*531 FILLER_1_3
*532 FILLER_1_36
*533 FILLER_1_44
*534 FILLER_1_54
*535 FILLER_1_57
*536 FILLER_1_68
*537 FILLER_1_72
*538 FILLER_1_93
*539 FILLER_20_102
*540 FILLER_20_115
*541 FILLER_20_127
*542 FILLER_20_133
*543 FILLER_20_137
*544 FILLER_20_141
*545 FILLER_20_146
*546 FILLER_20_158
*547 FILLER_20_170
*548 FILLER_20_18
*549 FILLER_20_186
*550 FILLER_20_194
*551 FILLER_20_197
*552 FILLER_20_203
*553 FILLER_20_207
*554 FILLER_20_211
*555 FILLER_20_26
*556 FILLER_20_29
*557 FILLER_20_3
*558 FILLER_20_33
*559 FILLER_20_43
*560 FILLER_20_55
*561 FILLER_20_67
*562 FILLER_20_72
*563 FILLER_20_85
*564 FILLER_20_90
*565 FILLER_21_102
*566 FILLER_21_110
*567 FILLER_21_113
*568 FILLER_21_124
*569 FILLER_21_132
*570 FILLER_21_14
*571 FILLER_21_149
*572 FILLER_21_160
*573 FILLER_21_169
*574 FILLER_21_177
*575 FILLER_21_18
*576 FILLER_21_192
*577 FILLER_21_198
*578 FILLER_21_207
*579 FILLER_21_211
*580 FILLER_21_23
*581 FILLER_21_3
*582 FILLER_21_35
*583 FILLER_21_41
*584 FILLER_21_47
*585 FILLER_21_55
*586 FILLER_21_57
*587 FILLER_21_68
*588 FILLER_21_77
*589 FILLER_21_90
*590 FILLER_21_94
*591 FILLER_22_107
*592 FILLER_22_124
*593 FILLER_22_130
*594 FILLER_22_137
*595 FILLER_22_14
*596 FILLER_22_141
*597 FILLER_22_153
*598 FILLER_22_163
*599 FILLER_22_170
*600 FILLER_22_182
*601 FILLER_22_190
*602 FILLER_22_197
*603 FILLER_22_209
*604 FILLER_22_26
*605 FILLER_22_29
*606 FILLER_22_3
*607 FILLER_22_38
*608 FILLER_22_49
*609 FILLER_22_56
*610 FILLER_22_62
*611 FILLER_22_71
*612 FILLER_22_81
*613 FILLER_22_85
*614 FILLER_22_95
*615 FILLER_23_102
*616 FILLER_23_11
*617 FILLER_23_110
*618 FILLER_23_113
*619 FILLER_23_122
*620 FILLER_23_126
*621 FILLER_23_136
*622 FILLER_23_144
*623 FILLER_23_149
*624 FILLER_23_157
*625 FILLER_23_16
*626 FILLER_23_165
*627 FILLER_23_169
*628 FILLER_23_177
*629 FILLER_23_187
*630 FILLER_23_195
*631 FILLER_23_207
*632 FILLER_23_211
*633 FILLER_23_28
*634 FILLER_23_3
*635 FILLER_23_40
*636 FILLER_23_52
*637 FILLER_23_57
*638 FILLER_23_70
*639 FILLER_23_78
*640 FILLER_23_90
*641 FILLER_24_100
*642 FILLER_24_108
*643 FILLER_24_115
*644 FILLER_24_123
*645 FILLER_24_128
*646 FILLER_24_135
*647 FILLER_24_139
*648 FILLER_24_141
*649 FILLER_24_148
*650 FILLER_24_160
*651 FILLER_24_169
*652 FILLER_24_18
*653 FILLER_24_181
*654 FILLER_24_193
*655 FILLER_24_197
*656 FILLER_24_209
*657 FILLER_24_26
*658 FILLER_24_29
*659 FILLER_24_3
*660 FILLER_24_41
*661 FILLER_24_53
*662 FILLER_24_65
*663 FILLER_24_74
*664 FILLER_24_82
*665 FILLER_24_85
*666 FILLER_24_92
*667 FILLER_25_106
*668 FILLER_25_113
*669 FILLER_25_124
*670 FILLER_25_135
*671 FILLER_25_143
*672 FILLER_25_15
*673 FILLER_25_154
*674 FILLER_25_165
*675 FILLER_25_169
*676 FILLER_25_181
*677 FILLER_25_193
*678 FILLER_25_205
*679 FILLER_25_211
*680 FILLER_25_27
*681 FILLER_25_3
*682 FILLER_25_32
*683 FILLER_25_43
*684 FILLER_25_50
*685 FILLER_25_57
*686 FILLER_25_63
*687 FILLER_25_75
*688 FILLER_25_95
*689 FILLER_26_105
*690 FILLER_26_113
*691 FILLER_26_125
*692 FILLER_26_137
*693 FILLER_26_141
*694 FILLER_26_147
*695 FILLER_26_15
*696 FILLER_26_151
*697 FILLER_26_163
*698 FILLER_26_175
*699 FILLER_26_187
*700 FILLER_26_195
*701 FILLER_26_197
*702 FILLER_26_209
*703 FILLER_26_21
*704 FILLER_26_26
*705 FILLER_26_29
*706 FILLER_26_3
*707 FILLER_26_37
*708 FILLER_26_43
*709 FILLER_26_51
*710 FILLER_26_59
*711 FILLER_26_73
*712 FILLER_26_82
*713 FILLER_26_85
*714 FILLER_26_97
*715 FILLER_27_111
*716 FILLER_27_113
*717 FILLER_27_125
*718 FILLER_27_137
*719 FILLER_27_149
*720 FILLER_27_15
*721 FILLER_27_161
*722 FILLER_27_167
*723 FILLER_27_169
*724 FILLER_27_181
*725 FILLER_27_193
*726 FILLER_27_205
*727 FILLER_27_211
*728 FILLER_27_27
*729 FILLER_27_3
*730 FILLER_27_39
*731 FILLER_27_51
*732 FILLER_27_55
*733 FILLER_27_57
*734 FILLER_27_62
*735 FILLER_27_70
*736 FILLER_27_75
*737 FILLER_27_87
*738 FILLER_27_99
*739 FILLER_28_109
*740 FILLER_28_121
*741 FILLER_28_133
*742 FILLER_28_139
*743 FILLER_28_141
*744 FILLER_28_15
*745 FILLER_28_153
*746 FILLER_28_165
*747 FILLER_28_177
*748 FILLER_28_189
*749 FILLER_28_195
*750 FILLER_28_197
*751 FILLER_28_209
*752 FILLER_28_27
*753 FILLER_28_29
*754 FILLER_28_3
*755 FILLER_28_41
*756 FILLER_28_53
*757 FILLER_28_65
*758 FILLER_28_77
*759 FILLER_28_83
*760 FILLER_28_85
*761 FILLER_28_97
*762 FILLER_29_105
*763 FILLER_29_111
*764 FILLER_29_113
*765 FILLER_29_125
*766 FILLER_29_137
*767 FILLER_29_149
*768 FILLER_29_15
*769 FILLER_29_161
*770 FILLER_29_167
*771 FILLER_29_169
*772 FILLER_29_181
*773 FILLER_29_193
*774 FILLER_29_205
*775 FILLER_29_211
*776 FILLER_29_27
*777 FILLER_29_3
*778 FILLER_29_39
*779 FILLER_29_51
*780 FILLER_29_55
*781 FILLER_29_57
*782 FILLER_29_69
*783 FILLER_29_81
*784 FILLER_29_93
*785 FILLER_2_109
*786 FILLER_2_115
*787 FILLER_2_120
*788 FILLER_2_128
*789 FILLER_2_135
*790 FILLER_2_139
*791 FILLER_2_141
*792 FILLER_2_151
*793 FILLER_2_163
*794 FILLER_2_169
*795 FILLER_2_177
*796 FILLER_2_188
*797 FILLER_2_197
*798 FILLER_2_209
*799 FILLER_2_26
*800 FILLER_2_29
*801 FILLER_2_3
*802 FILLER_2_41
*803 FILLER_2_53
*804 FILLER_2_61
*805 FILLER_2_80
*806 FILLER_2_85
*807 FILLER_2_9
*808 FILLER_30_109
*809 FILLER_30_11
*810 FILLER_30_121
*811 FILLER_30_133
*812 FILLER_30_139
*813 FILLER_30_141
*814 FILLER_30_153
*815 FILLER_30_165
*816 FILLER_30_177
*817 FILLER_30_189
*818 FILLER_30_195
*819 FILLER_30_197
*820 FILLER_30_209
*821 FILLER_30_23
*822 FILLER_30_27
*823 FILLER_30_29
*824 FILLER_30_3
*825 FILLER_30_41
*826 FILLER_30_53
*827 FILLER_30_65
*828 FILLER_30_77
*829 FILLER_30_83
*830 FILLER_30_85
*831 FILLER_30_97
*832 FILLER_31_109
*833 FILLER_31_113
*834 FILLER_31_125
*835 FILLER_31_137
*836 FILLER_31_141
*837 FILLER_31_15
*838 FILLER_31_153
*839 FILLER_31_165
*840 FILLER_31_169
*841 FILLER_31_181
*842 FILLER_31_193
*843 FILLER_31_197
*844 FILLER_31_209
*845 FILLER_31_27
*846 FILLER_31_29
*847 FILLER_31_3
*848 FILLER_31_41
*849 FILLER_31_53
*850 FILLER_31_57
*851 FILLER_31_69
*852 FILLER_31_81
*853 FILLER_31_85
*854 FILLER_31_97
*855 FILLER_3_108
*856 FILLER_3_113
*857 FILLER_3_125
*858 FILLER_3_137
*859 FILLER_3_141
*860 FILLER_3_152
*861 FILLER_3_164
*862 FILLER_3_169
*863 FILLER_3_179
*864 FILLER_3_191
*865 FILLER_3_203
*866 FILLER_3_211
*867 FILLER_3_22
*868 FILLER_3_3
*869 FILLER_3_34
*870 FILLER_3_54
*871 FILLER_3_57
*872 FILLER_3_81
*873 FILLER_3_89
*874 FILLER_4_110
*875 FILLER_4_122
*876 FILLER_4_134
*877 FILLER_4_138
*878 FILLER_4_141
*879 FILLER_4_153
*880 FILLER_4_160
*881 FILLER_4_180
*882 FILLER_4_187
*883 FILLER_4_195
*884 FILLER_4_197
*885 FILLER_4_209
*886 FILLER_4_26
*887 FILLER_4_29
*888 FILLER_4_3
*889 FILLER_4_41
*890 FILLER_4_61
*891 FILLER_4_82
*892 FILLER_4_85
*893 FILLER_4_9
*894 FILLER_4_93
*895 FILLER_5_11
*896 FILLER_5_110
*897 FILLER_5_113
*898 FILLER_5_121
*899 FILLER_5_133
*900 FILLER_5_146
*901 FILLER_5_158
*902 FILLER_5_16
*903 FILLER_5_166
*904 FILLER_5_169
*905 FILLER_5_175
*906 FILLER_5_187
*907 FILLER_5_199
*908 FILLER_5_211
*909 FILLER_5_3
*910 FILLER_5_34
*911 FILLER_5_54
*912 FILLER_5_57
*913 FILLER_5_69
*914 FILLER_5_81
*915 FILLER_5_93
*916 FILLER_6_110
*917 FILLER_6_122
*918 FILLER_6_134
*919 FILLER_6_141
*920 FILLER_6_148
*921 FILLER_6_160
*922 FILLER_6_172
*923 FILLER_6_179
*924 FILLER_6_191
*925 FILLER_6_195
*926 FILLER_6_197
*927 FILLER_6_204
*928 FILLER_6_24
*929 FILLER_6_29
*930 FILLER_6_3
*931 FILLER_6_41
*932 FILLER_6_45
*933 FILLER_6_62
*934 FILLER_6_74
*935 FILLER_6_82
*936 FILLER_6_85
*937 FILLER_6_93
*938 FILLER_7_101
*939 FILLER_7_109
*940 FILLER_7_113
*941 FILLER_7_121
*942 FILLER_7_133
*943 FILLER_7_15
*944 FILLER_7_150
*945 FILLER_7_158
*946 FILLER_7_166
*947 FILLER_7_169
*948 FILLER_7_181
*949 FILLER_7_195
*950 FILLER_7_207
*951 FILLER_7_211
*952 FILLER_7_3
*953 FILLER_7_35
*954 FILLER_7_47
*955 FILLER_7_55
*956 FILLER_7_57
*957 FILLER_7_81
*958 FILLER_8_110
*959 FILLER_8_122
*960 FILLER_8_130
*961 FILLER_8_138
*962 FILLER_8_141
*963 FILLER_8_151
*964 FILLER_8_155
*965 FILLER_8_163
*966 FILLER_8_171
*967 FILLER_8_181
*968 FILLER_8_185
*969 FILLER_8_194
*970 FILLER_8_197
*971 FILLER_8_209
*972 FILLER_8_21
*973 FILLER_8_27
*974 FILLER_8_29
*975 FILLER_8_3
*976 FILLER_8_41
*977 FILLER_8_73
*978 FILLER_8_81
*979 FILLER_8_85
*980 FILLER_8_93
*981 FILLER_9_105
*982 FILLER_9_111
*983 FILLER_9_113
*984 FILLER_9_134
*985 FILLER_9_146
*986 FILLER_9_15
*987 FILLER_9_158
*988 FILLER_9_166
*989 FILLER_9_169
*990 FILLER_9_177
*991 FILLER_9_183
*992 FILLER_9_195
*993 FILLER_9_207
*994 FILLER_9_211
*995 FILLER_9_3
*996 FILLER_9_36
*997 FILLER_9_48
*998 FILLER_9_57
*999 FILLER_9_69
*1000 FILLER_9_93
*1001 PHY_0
*1002 PHY_1
*1003 PHY_10
*1004 PHY_11
*1005 PHY_12
*1006 PHY_13
*1007 PHY_14
*1008 PHY_15
*1009 PHY_16
*1010 PHY_17
*1011 PHY_18
*1012 PHY_19
*1013 PHY_2
*1014 PHY_20
*1015 PHY_21
*1016 PHY_22
*1017 PHY_23
*1018 PHY_24
*1019 PHY_25
*1020 PHY_26
*1021 PHY_27
*1022 PHY_28
*1023 PHY_29
*1024 PHY_3
*1025 PHY_30
*1026 PHY_31
*1027 PHY_32
*1028 PHY_33
*1029 PHY_34
*1030 PHY_35
*1031 PHY_36
*1032 PHY_37
*1033 PHY_38
*1034 PHY_39
*1035 PHY_4
*1036 PHY_40
*1037 PHY_41
*1038 PHY_42
*1039 PHY_43
*1040 PHY_44
*1041 PHY_45
*1042 PHY_46
*1043 PHY_47
*1044 PHY_48
*1045 PHY_49
*1046 PHY_5
*1047 PHY_50
*1048 PHY_51
*1049 PHY_52
*1050 PHY_53
*1051 PHY_54
*1052 PHY_55
*1053 PHY_56
*1054 PHY_57
*1055 PHY_58
*1056 PHY_59
*1057 PHY_6
*1058 PHY_60
*1059 PHY_61
*1060 PHY_62
*1061 PHY_63
*1062 PHY_7
*1063 PHY_8
*1064 PHY_9
*1065 TAP_100
*1066 TAP_101
*1067 TAP_102
*1068 TAP_103
*1069 TAP_104
*1070 TAP_105
*1071 TAP_106
*1072 TAP_107
*1073 TAP_108
*1074 TAP_109
*1075 TAP_110
*1076 TAP_111
*1077 TAP_112
*1078 TAP_113
*1079 TAP_114
*1080 TAP_115
*1081 TAP_116
*1082 TAP_117
*1083 TAP_118
*1084 TAP_119
*1085 TAP_120
*1086 TAP_121
*1087 TAP_122
*1088 TAP_123
*1089 TAP_124
*1090 TAP_125
*1091 TAP_126
*1092 TAP_127
*1093 TAP_128
*1094 TAP_129
*1095 TAP_130
*1096 TAP_131
*1097 TAP_132
*1098 TAP_133
*1099 TAP_134
*1100 TAP_135
*1101 TAP_136
*1102 TAP_137
*1103 TAP_138
*1104 TAP_139
*1105 TAP_140
*1106 TAP_141
*1107 TAP_142
*1108 TAP_143
*1109 TAP_144
*1110 TAP_145
*1111 TAP_146
*1112 TAP_147
*1113 TAP_148
*1114 TAP_149
*1115 TAP_150
*1116 TAP_151
*1117 TAP_152
*1118 TAP_153
*1119 TAP_154
*1120 TAP_155
*1121 TAP_156
*1122 TAP_157
*1123 TAP_158
*1124 TAP_159
*1125 TAP_160
*1126 TAP_161
*1127 TAP_162
*1128 TAP_163
*1129 TAP_164
*1130 TAP_165
*1131 TAP_166
*1132 TAP_167
*1133 TAP_168
*1134 TAP_169
*1135 TAP_170
*1136 TAP_171
*1137 TAP_172
*1138 TAP_173
*1139 TAP_174
*1140 TAP_175
*1141 TAP_176
*1142 TAP_177
*1143 TAP_178
*1144 TAP_179
*1145 TAP_180
*1146 TAP_181
*1147 TAP_182
*1148 TAP_64
*1149 TAP_65
*1150 TAP_66
*1151 TAP_67
*1152 TAP_68
*1153 TAP_69
*1154 TAP_70
*1155 TAP_71
*1156 TAP_72
*1157 TAP_73
*1158 TAP_74
*1159 TAP_75
*1160 TAP_76
*1161 TAP_77
*1162 TAP_78
*1163 TAP_79
*1164 TAP_80
*1165 TAP_81
*1166 TAP_82
*1167 TAP_83
*1168 TAP_84
*1169 TAP_85
*1170 TAP_86
*1171 TAP_87
*1172 TAP_88
*1173 TAP_89
*1174 TAP_90
*1175 TAP_91
*1176 TAP_92
*1177 TAP_93
*1178 TAP_94
*1179 TAP_95
*1180 TAP_96
*1181 TAP_97
*1182 TAP_98
*1183 TAP_99
*1184 _199_
*1185 _200_
*1186 _201_
*1187 _202_
*1188 _203_
*1189 _204_
*1190 _205_
*1191 _206_
*1192 _207_
*1193 _208_
*1194 _209_
*1195 _210_
*1196 _211_
*1197 _212_
*1198 _213_
*1199 _214_
*1200 _215_
*1201 _216_
*1202 _217_
*1203 _218_
*1204 _219_
*1205 _220_
*1206 _221_
*1207 _222_
*1208 _223_
*1209 _224_
*1210 _225_
*1211 _226_
*1212 _227_
*1213 _228_
*1214 _229_
*1215 _230_
*1216 _231_
*1217 _232_
*1218 _233_
*1219 _234_
*1220 _235_
*1221 _236_
*1222 _237_
*1223 _238_
*1224 _239_
*1225 _240_
*1226 _241_
*1227 _242_
*1228 _243_
*1229 _244_
*1230 _245_
*1231 _246_
*1232 _247_
*1233 _248_
*1234 _249_
*1235 _250_
*1236 _251_
*1237 _252_
*1238 _253_
*1239 _254_
*1240 _255_
*1241 _256_
*1242 _257_
*1243 _258_
*1244 _259_
*1245 _260_
*1246 _261_
*1247 _262_
*1248 _263_
*1249 _264_
*1250 _265_
*1251 _266_
*1252 _267_
*1253 _268_
*1254 _269_
*1255 _270_
*1256 _271_
*1257 _272_
*1258 _273_
*1259 _274_
*1260 _275_
*1261 _276_
*1262 _277_
*1263 _278_
*1264 _279_
*1265 _280_
*1266 _281_
*1267 _282_
*1268 _283_
*1269 _284_
*1270 _285_
*1271 _286_
*1272 _287_
*1273 _288_
*1274 _289_
*1275 _290_
*1276 _291_
*1277 _292_
*1278 _293_
*1279 _294_
*1280 _295_
*1281 _296_
*1282 _297_
*1283 _298_
*1284 _299_
*1285 _300_
*1286 _301_
*1287 _302_
*1288 _303_
*1289 _304_
*1290 _305_
*1291 _306_
*1292 _307_
*1293 _308_
*1294 _309_
*1295 _310_
*1296 _311_
*1297 _312_
*1298 _313_
*1299 _314_
*1300 _315_
*1301 _316_
*1302 _317_
*1303 _318_
*1304 _319_
*1305 _320_
*1306 _321_
*1307 _322_
*1308 _323_
*1309 _324_
*1310 _325_
*1311 _326_
*1312 _327_
*1313 _328_
*1314 _329_
*1315 _330_
*1316 _331_
*1317 _332_
*1318 _333_
*1319 _334_
*1320 _335_
*1321 _336_
*1322 _337_
*1323 _338_
*1324 _339_
*1325 _340_
*1326 _341_
*1327 _342_
*1328 _343_
*1329 _344_
*1330 _345_
*1331 _346_
*1332 _347_
*1333 _348_
*1334 _349_
*1335 _350_
*1336 _351_
*1337 _352_
*1338 _353_
*1339 _354_
*1340 _355_
*1341 _356_
*1342 _357_
*1343 _358_
*1344 _359_
*1345 _360_
*1346 _361_
*1347 _362_
*1348 _363_
*1349 _364_
*1350 _365_
*1351 _366_
*1352 _367_
*1353 _368_
*1354 _369_
*1355 _370_
*1356 _371_
*1357 _372_
*1358 _373_
*1359 _374_
*1360 _375_
*1361 _376_
*1362 _377_
*1363 _378_
*1364 _379_
*1365 _380_
*1366 _381_
*1367 _382_
*1368 _383_
*1369 _384_
*1370 _385_
*1371 _386_
*1372 _387_
*1373 _388_
*1374 _389_
*1375 _390_
*1376 _391_
*1377 _392_
*1378 _393_
*1379 _394_
*1380 _395_
*1381 _396_
*1382 _397_
*1383 _398_
*1384 _399_
*1385 _400_
*1386 _401_
*1387 _402_
*1388 _403_
*1389 _404_
*1390 _405_
*1391 _406_
*1392 _407_
*1393 _408_
*1394 _409_
*1395 _410_
*1396 _411_
*1397 _412_
*1398 _413_
*1399 _414_
*1400 _415_
*1401 _416_
*1402 _417_
*1403 _418_
*1404 _419_
*1405 _420_
*1406 _421_
*1407 _422_
*1408 _423_
*1409 _424_
*1410 _425_
*1411 _426_
*1412 _427_
*1413 _428_
*1414 _429_
*1415 _430_
*1416 _431_
*1417 _432_
*1418 _433_
*1419 _434_
*1420 _435_
*1421 _436_
*1422 _437_
*1423 _438_
*1424 clkbuf_0_clk
*1425 clkbuf_2_0__f_clk
*1426 clkbuf_2_1__f_clk
*1427 clkbuf_2_2__f_clk
*1428 clkbuf_2_3__f_clk
*1429 fanout3
*1430 fanout4
*1431 fanout5
*1432 fanout6
*1433 fanout7
*1434 fanout8
*1435 fanout9
*1436 input1
*1437 output2

*PORTS
OP O
clk I
rst I

*D_NET *1 0.000635399
*CONN
*P OP O
*I *1437:X O *D sky130_fd_sc_hd__buf_4
*CAP
1 OP 0.0003177
2 *1437:X 0.0003177
3 OP *236:8 0
*RES
1 *1437:X OP 24.501 
*END

*D_NET *2 0.00332545
*CONN
*P clk I
*I *1424:A I *D sky130_fd_sc_hd__clkbuf_16
*CAP
1 clk 0.00155834
2 *1424:A 0.000104386
3 *2:14 0.00166272
4 *1424:A *219:7 0
5 *2:14 *1193:B 0
6 *2:14 *1413:D 0
7 *2:14 *1425:A 0
8 *2:14 *48:9 0
9 *2:14 *225:8 0
10 *2:14 *226:8 0
11 *2:14 *234:11 0
*RES
1 clk *2:14 48.2814 
2 *2:14 *1424:A 20.4786 
*END

*D_NET *3 0.000516727
*CONN
*P rst I
*I *1436:A I *D sky130_fd_sc_hd__clkbuf_2
*CAP
1 rst 0.000258364
2 *1436:A 0.000258364
3 *1436:A *1403:D 0
4 *1436:A *38:8 0
*RES
1 rst *1436:A 23.7498 
*END

*D_NET *6 0.00371578
*CONN
*I *1355:B I *D sky130_fd_sc_hd__nand2_1
*I *1316:B I *D sky130_fd_sc_hd__or2_1
*I *1327:A0 I *D sky130_fd_sc_hd__mux2_1
*I *1402:Q O *D sky130_fd_sc_hd__dfxtp_1
*CAP
1 *1355:B 0.000183994
2 *1316:B 2.56688e-05
3 *1327:A0 2.56688e-05
4 *1402:Q 4.53482e-05
5 *6:28 0.000284403
6 *6:19 0.00160288
7 *6:7 0.00154782
8 *1327:A0 *1327:A1 0
9 *1355:B *1326:A0 0
10 *1355:B *1327:A1 0
11 *1355:B *7:24 0
12 *6:19 *1320:B1 0
13 *6:19 *1327:S 0
14 *6:19 *1356:B1 0
15 *6:19 *42:8 0
16 *6:19 *44:11 0
17 *6:19 *155:11 0
18 *6:19 *157:37 0
19 *6:19 *157:56 0
20 *6:19 *221:49 0
21 *6:19 *221:58 0
22 *6:19 *243:18 0
23 *6:19 *243:33 0
24 *6:28 *1327:A1 0
25 *6:28 *7:15 0
*RES
1 *1402:Q *6:7 19.2464 
2 *6:7 *6:19 47.1607 
3 *6:19 *1327:A0 9.83571 
4 *6:19 *6:28 10.9464 
5 *6:28 *1316:B 18.8357 
6 *6:28 *1355:B 22.8179 
*END

*D_NET *7 0.00238275
*CONN
*I *1326:A0 I *D sky130_fd_sc_hd__mux2_1
*I *1355:A I *D sky130_fd_sc_hd__nand2_1
*I *1316:A I *D sky130_fd_sc_hd__or2_1
*I *1333:A0 I *D sky130_fd_sc_hd__mux2_1
*I *1403:Q O *D sky130_fd_sc_hd__dfxtp_1
*CAP
1 *1326:A0 9.80089e-05
2 *1355:A 8.55626e-05
3 *1316:A 2.56688e-05
4 *1333:A0 0
5 *1403:Q 0.000482955
6 *7:24 0.000290882
7 *7:15 0.00052485
8 *7:8 0.000874826
9 *1326:A0 *1327:A1 0
10 *1326:A0 *236:8 0
11 *1355:A *1356:A2 0
12 *7:8 *1299:B 0
13 *7:8 *1319:A1 0
14 *7:8 *13:8 0
15 *7:8 *236:8 0
16 *7:8 *241:14 0
17 *7:15 *1190:A 0
18 *7:15 *38:8 0
19 *7:15 *236:8 0
20 *7:15 *241:14 0
21 *7:24 *236:8 0
22 *1355:B *1326:A0 0
23 *1355:B *7:24 0
24 *6:28 *7:15 0
*RES
1 *1403:Q *7:8 30.0321 
2 *7:8 *1333:A0 18.3 
3 *7:8 *7:15 10.1429 
4 *7:15 *1316:A 18.8357 
5 *7:15 *7:24 2.85714 
6 *7:24 *1355:A 20.0857 
7 *7:24 *1326:A0 20.7821 
*END

*D_NET *8 0.00206734
*CONN
*I *1317:C I *D sky130_fd_sc_hd__or4b_2
*I *1332:B1 I *D sky130_fd_sc_hd__a32o_1
*I *1338:A0 I *D sky130_fd_sc_hd__mux2_1
*I *1404:Q O *D sky130_fd_sc_hd__dfxtp_1
*CAP
1 *1317:C 0
2 *1332:B1 0.000207136
3 *1338:A0 2.56688e-05
4 *1404:Q 0.000406502
5 *8:24 0.000601499
6 *8:8 0.000826534
7 *1332:B1 *1318:A3 0
8 *1332:B1 *1332:A1 0
9 *1332:B1 *155:26 0
10 *1332:B1 *157:95 0
11 *1332:B1 *161:15 0
12 *8:8 *1404:D 0
13 *8:8 *256:8 0
14 *8:8 *258:14 0
15 *8:24 *1337:S 0
16 *8:24 *1338:A1 0
17 *8:24 *1404:D 0
18 *8:24 *9:8 0
19 *8:24 *157:15 0
20 *8:24 *157:18 0
21 *8:24 *258:14 0
*RES
1 *1404:Q *8:8 27.5321 
2 *8:8 *1338:A0 18.8357 
3 *8:8 *8:24 19.0357 
4 *8:24 *1332:B1 32.6125 
5 *8:24 *1317:C 9.3 
*END

*D_NET *9 0.00274295
*CONN
*I *1317:A I *D sky130_fd_sc_hd__or4b_2
*I *1343:A0 I *D sky130_fd_sc_hd__mux2_1
*I *1337:A0 I *D sky130_fd_sc_hd__mux2_1
*I *1405:Q O *D sky130_fd_sc_hd__dfxtp_1
*CAP
1 *1317:A 0.000156292
2 *1343:A0 0.000379898
3 *1337:A0 0.000124066
4 *1405:Q 0.000650538
5 *9:17 0.000596874
6 *9:8 0.000835287
7 *1317:A *1318:A3 0
8 *1317:A *1337:S 0
9 *1317:A *155:26 0
10 *1317:A *257:12 0
11 *1337:A0 *207:67 0
12 *1343:A0 *1318:A1 0
13 *1343:A0 *1318:A2 0
14 *1343:A0 *184:11 0
15 *9:8 *1337:S 0
16 *9:8 *1338:A1 0
17 *9:8 *1387:D 0
18 *9:8 *1398:CLK 0
19 *9:8 *1404:D 0
20 *9:8 *223:24 0
21 *9:8 *223:33 0
22 *9:8 *257:12 0
23 *9:17 *1337:S 0
24 *9:17 *257:12 0
25 *8:24 *9:8 0
*RES
1 *1405:Q *9:8 34.1929 
2 *9:8 *1337:A0 20.8893 
3 *9:8 *9:17 1.64286 
4 *9:17 *1343:A0 26.2286 
5 *9:17 *1317:A 22.3 
*END

*D_NET *10 0.00374604
*CONN
*I *1318:A2 I *D sky130_fd_sc_hd__o31ai_4
*I *1342:A0 I *D sky130_fd_sc_hd__mux2_1
*I *1348:A0 I *D sky130_fd_sc_hd__mux2_1
*I *1406:Q O *D sky130_fd_sc_hd__dfxtp_2
*CAP
1 *1318:A2 0.000440317
2 *1342:A0 0
3 *1348:A0 4.53482e-05
4 *1406:Q 0.00114735
5 *10:19 0.000659785
6 *10:11 0.000285351
7 *10:8 0.00116789
8 *1318:A2 *1317:D_N 0
9 *1318:A2 *1318:A1 0
10 *1318:A2 *1333:A1 0
11 *1318:A2 *184:11 0
12 *1318:A2 *207:51 0
13 *1318:A2 *207:55 0
14 *1348:A0 *1348:S 0
15 *10:8 *1353:A1 0
16 *10:8 *1353:B1 0
17 *10:8 *1387:CLK 0
18 *10:8 *1435:A 0
19 *10:8 *11:8 0
20 *10:8 *41:11 0
21 *10:8 *207:22 0
22 *10:8 *207:24 0
23 *10:8 *221:49 0
24 *10:8 *221:58 0
25 *10:8 *241:107 0
26 *10:8 *243:11 0
27 *10:19 *157:25 0
28 *10:19 *241:107 0
29 *1343:A0 *1318:A2 0
*RES
1 *1406:Q *10:8 47.8 
2 *10:8 *10:11 9.42857 
3 *10:11 *1348:A0 10.2464 
4 *10:11 *10:19 4.64286 
5 *10:19 *1342:A0 9.3 
6 *10:19 *1318:A2 37.3536 
*END

*D_NET *11 0.0022748
*CONN
*I *1347:A0 I *D sky130_fd_sc_hd__mux2_1
*I *1318:A1 I *D sky130_fd_sc_hd__o31ai_4
*I *1353:A2 I *D sky130_fd_sc_hd__a22o_1
*I *1407:Q O *D sky130_fd_sc_hd__dfxtp_2
*CAP
1 *1347:A0 0.000167994
2 *1318:A1 0.000379898
3 *1353:A2 0
4 *1407:Q 0.000505514
5 *11:15 0.000631888
6 *11:8 0.000589511
7 *1318:A1 *1333:A1 0
8 *1318:A1 *1343:A1 0
9 *1318:A1 *184:11 0
10 *1347:A0 *1343:A1 0
11 *1347:A0 *1348:A1 0
12 *1347:A0 *1353:A1 0
13 *1347:A0 *157:25 0
14 *1347:A0 *184:11 0
15 *1347:A0 *207:22 0
16 *1347:A0 *241:107 0
17 *11:8 *1353:B1 0
18 *11:8 *41:11 0
19 *11:15 *1353:A1 0
20 *11:15 *1353:B1 0
21 *11:15 *41:11 0
22 *11:15 *207:55 0
23 *1318:A2 *1318:A1 0
24 *1343:A0 *1318:A1 0
25 *10:8 *11:8 0
*RES
1 *1407:Q *11:8 30.925 
2 *11:8 *1353:A2 18.3 
3 *11:8 *11:15 2.25 
4 *11:15 *1318:A1 26.2286 
5 *11:15 *1347:A0 22.675 
*END

*D_NET *12 0.00350953
*CONN
*I *1317:D_N I *D sky130_fd_sc_hd__or4b_2
*I *1352:A2 I *D sky130_fd_sc_hd__o21a_1
*I *1358:A2 I *D sky130_fd_sc_hd__a21bo_1
*I *1408:Q O *D sky130_fd_sc_hd__dfxtp_1
*CAP
1 *1317:D_N 0.000453745
2 *1352:A2 2.26741e-05
3 *1358:A2 0.00049883
4 *1408:Q 0.000779516
5 *12:10 0.000521504
6 *12:8 0.00123326
7 *1317:D_N *41:11 0
8 *1317:D_N *157:18 0
9 *1317:D_N *169:8 0
10 *1317:D_N *207:55 0
11 *1317:D_N *234:11 0
12 *1317:D_N *241:107 0
13 *1352:A2 *207:67 0
14 *1358:A2 *1353:B2 0
15 *1358:A2 *43:11 0
16 *1358:A2 *44:11 0
17 *1358:A2 *207:67 0
18 *1358:A2 *243:11 0
19 *12:8 *41:11 0
20 *12:8 *234:11 0
21 *1318:A2 *1317:D_N 0
*RES
1 *1408:Q *12:8 37.2464 
2 *12:8 *12:10 9 
3 *12:10 *1358:A2 19.7107 
4 *12:10 *1352:A2 9.83571 
5 *12:8 *1317:D_N 29.1929 
*END

*D_NET *13 0.00194275
*CONN
*I *1319:A1 I *D sky130_fd_sc_hd__o21ai_1
*I *1299:A I *D sky130_fd_sc_hd__and2_1
*I *1320:A1 I *D sky130_fd_sc_hd__a21oi_1
*I *1401:Q O *D sky130_fd_sc_hd__dfxtp_1
*CAP
1 *1319:A1 0.000141002
2 *1299:A 0.000183104
3 *1320:A1 0.000183104
4 *1401:Q 0.000356856
5 *13:17 0.000431416
6 *13:8 0.00064727
7 *1299:A *1299:B 0
8 *1319:A1 *1320:A2 0
9 *1319:A1 *1358:B1_N 0
10 *1320:A1 *1320:A2 0
11 *1320:A1 *1320:B1 0
12 *13:8 *221:26 0
13 *13:8 *233:17 0
14 *13:8 *241:14 0
15 *13:17 *1299:B 0
16 *13:17 *1320:A2 0
17 *7:8 *1319:A1 0
18 *7:8 *13:8 0
*RES
1 *1401:Q *13:8 27.4607 
2 *13:8 *1320:A1 22.1214 
3 *13:8 *13:17 2.85714 
4 *13:17 *1299:A 22.1214 
5 *13:17 *1319:A1 21.8 
*END

*D_NET *14 0.00365644
*CONN
*I *1216:C1 I *D sky130_fd_sc_hd__a311o_1
*I *1210:D1 I *D sky130_fd_sc_hd__o2111a_4
*I *1394:Q O *D sky130_fd_sc_hd__dfxtp_1
*CAP
1 *1216:C1 0.000592093
2 *1210:D1 6.30662e-05
3 *1394:Q 0.00117306
4 *14:5 0.00182822
5 *1210:D1 *22:10 0