*SPEF "ieee 1481-1999"
*DESIGN "wrapped_MC14500"
*DATE "11:11:11 Fri 11 11, 1111"
*VENDOR "OpenRCX"
*PROGRAM "Parallel Extraction"
*VERSION "1.0"
*DESIGN_FLOW "NAME_SCOPE LOCAL" "PIN_CAP NONE"
*DIVIDER /
*DELIMITER :
*BUS_DELIMITER []
*T_UNIT 1 NS
*C_UNIT 1 PF
*R_UNIT 1 OHM
*L_UNIT 1 HENRY

*NAME_MAP
*1 clk
*2 io_in[0]
*3 io_in[1]
*4 io_in[2]
*5 io_in[3]
*6 io_in[4]
*7 io_oeb
*8 io_out[0]
*9 io_out[1]
*10 io_out[2]
*11 io_out[3]
*12 io_out[4]
*13 io_out[5]
*14 io_out[6]
*15 io_out[7]
*16 net16
*17 rst
*20 _00_
*21 _01_
*22 _02_
*23 _03_
*24 _04_
*25 _05_
*26 _10_
*27 _11_
*28 _12_
*29 _13_
*30 _14_
*31 _15_
*32 _16_
*33 _17_
*34 _18_
*35 _19_
*36 _20_
*37 _21_
*38 _22_
*39 _23_
*40 _24_
*41 _25_
*42 _26_
*43 _27_
*44 _28_
*45 _29_
*46 _30_
*47 _31_
*48 clknet_0_clk
*49 clknet_1_0__leaf_clk
*50 clknet_1_1__leaf_clk
*51 mc14500\.IEN_l
*52 mc14500\.OEN_l
*53 mc14500\.instr\[0\]
*54 mc14500\.instr\[1\]
*55 mc14500\.instr\[2\]
*56 mc14500\.instr\[3\]
*57 mc14500\.skip
*58 net1
*59 net10
*60 net11
*61 net12
*62 net13
*63 net14
*64 net15
*65 net17
*66 net18
*67 net19
*68 net2
*69 net20
*70 net21
*71 net3
*72 net4
*73 net5
*74 net6
*75 net7
*76 net8
*77 net9
*78 ANTENNA_clkbuf_0_clk_A
*79 ANTENNA_input1_A
*80 ANTENNA_input2_A
*81 ANTENNA_input3_A
*82 ANTENNA_input4_A
*83 ANTENNA_input5_A
*84 ANTENNA_input6_A
*85 FILLER_0_101
*86 FILLER_0_11
*87 FILLER_0_19
*88 FILLER_0_25
*89 FILLER_0_29
*90 FILLER_0_3
*91 FILLER_0_33
*92 FILLER_0_40
*93 FILLER_0_46
*94 FILLER_0_53
*95 FILLER_0_57
*96 FILLER_0_66
*97 FILLER_0_72
*98 FILLER_0_79
*99 FILLER_0_83
*100 FILLER_0_85
*101 FILLER_0_93
*102 FILLER_10_15
*103 FILLER_10_19
*104 FILLER_10_26
*105 FILLER_10_29
*106 FILLER_10_3
*107 FILLER_10_51
*108 FILLER_10_66
*109 FILLER_10_78
*110 FILLER_10_85
*111 FILLER_10_97
*112 FILLER_11_15
*113 FILLER_11_3
*114 FILLER_11_38
*115 FILLER_11_54
*116 FILLER_11_57
*117 FILLER_11_67
*118 FILLER_11_79
*119 FILLER_11_91
*120 FILLER_12_101
*121 FILLER_12_15
*122 FILLER_12_21
*123 FILLER_12_25
*124 FILLER_12_29
*125 FILLER_12_3
*126 FILLER_12_41
*127 FILLER_12_48
*128 FILLER_12_61
*129 FILLER_12_73
*130 FILLER_12_81
*131 FILLER_12_85
*132 FILLER_12_93
*133 FILLER_13_101
*134 FILLER_13_15
*135 FILLER_13_27
*136 FILLER_13_3
*137 FILLER_13_39
*138 FILLER_13_47
*139 FILLER_13_54
*140 FILLER_13_57
*141 FILLER_13_65
*142 FILLER_13_77
*143 FILLER_13_89
*144 FILLER_14_15
*145 FILLER_14_27
*146 FILLER_14_29
*147 FILLER_14_3
*148 FILLER_14_41
*149 FILLER_14_53
*150 FILLER_14_58
*151 FILLER_14_66
*152 FILLER_14_74
*153 FILLER_14_82
*154 FILLER_14_85
*155 FILLER_14_97
*156 FILLER_15_15
*157 FILLER_15_27
*158 FILLER_15_3
*159 FILLER_15_45
*160 FILLER_15_53
*161 FILLER_15_57
*162 FILLER_15_67
*163 FILLER_15_79
*164 FILLER_15_91
*165 FILLER_16_15
*166 FILLER_16_27
*167 FILLER_16_29
*168 FILLER_16_3
*169 FILLER_16_33
*170 FILLER_16_50
*171 FILLER_16_57
*172 FILLER_16_69
*173 FILLER_16_81
*174 FILLER_16_85
*175 FILLER_16_97
*176 FILLER_17_102
*177 FILLER_17_15
*178 FILLER_17_27
*179 FILLER_17_3
*180 FILLER_17_46
*181 FILLER_17_54
*182 FILLER_17_57
*183 FILLER_17_62
*184 FILLER_17_66
*185 FILLER_17_72
*186 FILLER_17_84
*187 FILLER_17_96
*188 FILLER_18_15
*189 FILLER_18_27
*190 FILLER_18_29
*191 FILLER_18_3
*192 FILLER_18_41
*193 FILLER_18_53
*194 FILLER_18_65
*195 FILLER_18_77
*196 FILLER_18_83
*197 FILLER_18_85
*198 FILLER_18_97
*199 FILLER_19_101
*200 FILLER_19_15
*201 FILLER_19_27
*202 FILLER_19_3
*203 FILLER_19_39
*204 FILLER_19_51
*205 FILLER_19_55
*206 FILLER_19_57
*207 FILLER_19_69
*208 FILLER_19_81
*209 FILLER_19_89
*210 FILLER_19_93
*211 FILLER_1_101
*212 FILLER_1_12
*213 FILLER_1_3
*214 FILLER_1_36
*215 FILLER_1_48
*216 FILLER_1_54
*217 FILLER_1_57
*218 FILLER_1_66
*219 FILLER_1_7
*220 FILLER_1_78
*221 FILLER_1_86
*222 FILLER_1_91
*223 FILLER_20_15
*224 FILLER_20_27
*225 FILLER_20_29
*226 FILLER_20_3
*227 FILLER_20_41
*228 FILLER_20_53
*229 FILLER_20_65
*230 FILLER_20_77
*231 FILLER_20_83
*232 FILLER_20_85
*233 FILLER_20_97
*234 FILLER_21_101
*235 FILLER_21_15
*236 FILLER_21_27
*237 FILLER_21_3
*238 FILLER_21_39
*239 FILLER_21_51
*240 FILLER_21_55
*241 FILLER_21_57
*242 FILLER_21_69
*243 FILLER_21_81
*244 FILLER_21_93
*245 FILLER_22_15
*246 FILLER_22_27
*247 FILLER_22_29
*248 FILLER_22_3
*249 FILLER_22_41
*250 FILLER_22_53
*251 FILLER_22_65
*252 FILLER_22_77
*253 FILLER_22_83
*254 FILLER_22_85
*255 FILLER_22_97
*256 FILLER_23_101
*257 FILLER_23_15
*258 FILLER_23_27
*259 FILLER_23_3
*260 FILLER_23_39
*261 FILLER_23_51
*262 FILLER_23_55
*263 FILLER_23_57
*264 FILLER_23_69
*265 FILLER_23_81
*266 FILLER_23_93
*267 FILLER_24_101
*268 FILLER_24_15
*269 FILLER_24_27
*270 FILLER_24_29
*271 FILLER_24_3
*272 FILLER_24_41
*273 FILLER_24_53
*274 FILLER_24_57
*275 FILLER_24_69
*276 FILLER_24_77
*277 FILLER_24_82
*278 FILLER_24_85
*279 FILLER_24_91
*280 FILLER_2_101
*281 FILLER_2_15
*282 FILLER_2_24
*283 FILLER_2_29
*284 FILLER_2_3
*285 FILLER_2_37
*286 FILLER_2_41
*287 FILLER_2_51
*288 FILLER_2_63
*289 FILLER_2_74
*290 FILLER_2_82
*291 FILLER_2_85
*292 FILLER_2_97
*293 FILLER_3_11
*294 FILLER_3_17
*295 FILLER_3_3
*296 FILLER_3_37
*297 FILLER_3_50
*298 FILLER_3_57
*299 FILLER_3_64
*300 FILLER_3_71
*301 FILLER_3_83
*302 FILLER_3_95
*303 FILLER_4_15
*304 FILLER_4_19
*305 FILLER_4_23
*306 FILLER_4_27
*307 FILLER_4_29
*308 FILLER_4_3
*309 FILLER_4_35
*310 FILLER_4_47
*311 FILLER_4_51
*312 FILLER_4_60
*313 FILLER_4_72
*314 FILLER_4_85
*315 FILLER_4_97
*316 FILLER_5_101
*317 FILLER_5_15
*318 FILLER_5_23
*319 FILLER_5_3
*320 FILLER_5_43
*321 FILLER_5_54
*322 FILLER_5_57
*323 FILLER_5_64
*324 FILLER_5_77
*325 FILLER_5_89
*326 FILLER_6_101
*327 FILLER_6_15
*328 FILLER_6_27
*329 FILLER_6_29
*330 FILLER_6_3
*331 FILLER_6_48
*332 FILLER_6_63
*333 FILLER_6_72
*334 FILLER_6_81
*335 FILLER_6_85
*336 FILLER_6_93
*337 FILLER_7_102
*338 FILLER_7_15
*339 FILLER_7_27
*340 FILLER_7_3
*341 FILLER_7_39
*342 FILLER_7_51
*343 FILLER_7_55
*344 FILLER_7_57
*345 FILLER_7_62
*346 FILLER_7_74
*347 FILLER_7_86
*348 FILLER_7_98
*349 FILLER_8_15
*350 FILLER_8_27
*351 FILLER_8_29
*352 FILLER_8_3
*353 FILLER_8_47
*354 FILLER_8_55
*355 FILLER_8_60
*356 FILLER_8_72
*357 FILLER_8_85
*358 FILLER_8_97
*359 FILLER_9_102
*360 FILLER_9_15
*361 FILLER_9_3
*362 FILLER_9_36
*363 FILLER_9_49
*364 FILLER_9_55
*365 FILLER_9_57
*366 FILLER_9_62
*367 FILLER_9_74
*368 FILLER_9_86
*369 FILLER_9_98
*370 PHY_0
*371 PHY_1
*372 PHY_10
*373 PHY_11
*374 PHY_12
*375 PHY_13
*376 PHY_14
*377 PHY_15
*378 PHY_16
*379 PHY_17
*380 PHY_18
*381 PHY_19
*382 PHY_2
*383 PHY_20
*384 PHY_21
*385 PHY_22
*386 PHY_23
*387 PHY_24
*388 PHY_25
*389 PHY_26
*390 PHY_27
*391 PHY_28
*392 PHY_29
*393 PHY_3
*394 PHY_30
*395 PHY_31
*396 PHY_32
*397 PHY_33
*398 PHY_34
*399 PHY_35
*400 PHY_36
*401 PHY_37
*402 PHY_38
*403 PHY_39
*404 PHY_4
*405 PHY_40
*406 PHY_41
*407 PHY_42
*408 PHY_43
*409 PHY_44
*410 PHY_45
*411 PHY_46
*412 PHY_47
*413 PHY_48
*414 PHY_49
*415 PHY_5
*416 PHY_6
*417 PHY_7
*418 PHY_8
*419 PHY_9
*420 TAP_50
*421 TAP_51
*422 TAP_52
*423 TAP_53
*424 TAP_54
*425 TAP_55
*426 TAP_56
*427 TAP_57
*428 TAP_58
*429 TAP_59
*430 TAP_60
*431 TAP_61
*432 TAP_62
*433 TAP_63
*434 TAP_64
*435 TAP_65
*436 TAP_66
*437 TAP_67
*438 TAP_68
*439 TAP_69
*440 TAP_70
*441 TAP_71
*442 TAP_72
*443 TAP_73
*444 TAP_74
*445 TAP_75
*446 TAP_76
*447 TAP_77
*448 TAP_78
*449 TAP_79
*450 TAP_80
*451 TAP_81
*452 TAP_82
*453 TAP_83
*454 TAP_84
*455 TAP_85
*456 TAP_86
*457 TAP_87
*458 TAP_88
*459 TAP_89
*460 _32_
*461 _33_
*462 _34_
*463 _35_
*464 _36__1
*465 _36__2
*466 _37_
*467 _38_
*468 _39_
*469 _40_
*470 _41_
*471 _42_
*472 _43_
*473 _44_
*474 _45_
*475 _46_
*476 _47_
*477 _48_
*478 _49_
*479 _50_
*480 _51_
*481 _52_
*482 _53_
*483 _54_
*484 _55_
*485 _56_
*486 _57_
*487 _58_
*488 _59_
*489 _60_
*490 _61_
*491 _62_
*492 _63_
*493 _64_
*494 _65_
*495 _66_
*496 _67_
*497 _68__3
*498 _69__4
*499 _70__5
*500 _71_
*501 _72_
*502 _73_
*503 _74_
*504 _75_
*505 _76_
*506 _77_
*507 _78_
*508 _80_
*509 clkbuf_0_clk
*510 clkbuf_1_0__f_clk
*511 clkbuf_1_1__f_clk
*512 input1
*513 input2
*514 input3
*515 input4
*516 input5
*517 input6
*518 output10
*519 output11
*520 output12
*521 output13
*522 output14
*523 output15
*524 output7
*525 output8
*526 output9
*527 wrapped_MC14500_16

*PORTS
clk I
io_in[0] I
io_in[1] I
io_in[2] I
io_in[3] I
io_in[4] I
io_oeb O
io_out[0] O
io_out[1] O
io_out[2] O
io_out[3] O
io_out[4] O
io_out[5] O
io_out[6] O
io_out[7] O
io_out[8] O
rst I

*D_NET *1 0.00390062
*CONN
*P clk I
*I *78:DIODE I *D sky130_fd_sc_hd__diode_2
*I *509:A I *D sky130_fd_sc_hd__clkbuf_16
*CAP
1 clk 0.00162988
2 *78:DIODE 0
3 *509:A 0.000320432
4 *1:9 0.000320432
5 *1:7 0.00162988
6 *509:A *506:CLK 0
7 *509:A *50:9 0
8 *509:A *50:18 0
9 *1:7 *505:CLK 0
*RES
1 clk *1:7 42.4464 
2 *1:7 *1:9 9 
3 *1:9 *509:A 15.925 
4 *1:9 *78:DIODE 9.3 
*END

*D_NET *2 0.00114425
*CONN
*P io_in[0] I
*I *79:DIODE I *D sky130_fd_sc_hd__diode_2
*I *512:A I *D sky130_fd_sc_hd__clkbuf_2
*CAP
1 io_in[0] 0.000305025
2 *79:DIODE 0.000267101
3 *512:A 0
4 *2:8 0.000572126
5 *79:DIODE io_out[8] 0
6 *79:DIODE *75:19 0
7 *2:8 io_out[8] 0
*RES
1 io_in[0] *2:8 6.66405 
2 *2:8 *512:A 18.3 
3 *2:8 *79:DIODE 24.3714 
*END

*D_NET *3 0.000905287
*CONN
*P io_in[1] I
*I *513:A I *D sky130_fd_sc_hd__clkbuf_2
*I *80:DIODE I *D sky130_fd_sc_hd__diode_2
*CAP
1 io_in[1] 0.000288363
2 *513:A 0
3 *80:DIODE 0.00016428
4 *3:12 0.000452643
5 *80:DIODE *489:B 0
*RES
1 io_in[1] *3:12 13.7991 
2 *3:12 *80:DIODE 12.7286 
3 *3:12 *513:A 9.3 
*END

*D_NET *4 0.000734278
*CONN
*P io_in[2] I
*I *514:A I *D sky130_fd_sc_hd__clkbuf_2
*I *81:DIODE I *D sky130_fd_sc_hd__diode_2
*CAP
1 io_in[2] 0.000223394
2 *514:A 0
3 *81:DIODE 0.000143745
4 *4:10 0.000367139
5 *81:DIODE *71:10 0
*RES
1 io_in[2] *4:10 13.5391 
2 *4:10 *81:DIODE 12.3 
3 *4:10 *514:A 9.3 
*END

*D_NET *5 0.000850707
*CONN
*P io_in[3] I
*I *515:A I *D sky130_fd_sc_hd__clkbuf_2
*I *82:DIODE I *D sky130_fd_sc_hd__diode_2
*CAP
1 io_in[3] 0.000281609
2 *515:A 0
3 *82:DIODE 0.000143745
4 *5:10 0.000425354
5 *82:DIODE *72:10 0
*RES
1 io_in[3] *5:10 15.0569 
2 *5:10 *82:DIODE 12.3 
3 *5:10 *515:A 9.3 
*END

*D_NET *6 0.000779617
*CONN
*P io_in[4] I
*I *83:DIODE I *D sky130_fd_sc_hd__diode_2
*I *516:A I *D sky130_fd_sc_hd__clkbuf_2
*CAP
1 io_in[4] 0.000302308
2 *83:DIODE 6.18319e-05
3 *516:A 2.56688e-05
4 *6:11 0.000389809
*RES
1 io_in[4] *6:11 18.4262 
2 *6:11 *516:A 9.83571 
3 *6:11 *83:DIODE 28.9429 
*END

*D_NET *7 0.00128613
*CONN
*P io_oeb O
*I *524:X O *D sky130_fd_sc_hd__buf_4
*CAP
1 io_oeb 0.000643064
2 *524:X 0.000643064
*RES
1 *524:X io_oeb 33.6929 
*END

*D_NET *8 0.00107631
*CONN
*P io_out[0] O
*I *525:X O *D sky130_fd_sc_hd__buf_4
*CAP
1 io_out[0] 0.000538154
2 *525:X 0.000538154
*RES
1 *525:X io_out[0] 30.9607 
*END

*D_NET *9 0.000790509
*CONN
*P io_out[1] O
*I *526:X O *D sky130_fd_sc_hd__clkbuf_2
*CAP
1 io_out[1] 0.000395255
2 *526:X 0.000395255
3 io_out[1] *76:11 0
*RES
1 *526:X io_out[1] 28.4607 
*END

*D_NET *10 0.000604002
*CONN
*P io_out[2] O
*I *518:X O *D sky130_fd_sc_hd__clkbuf_2
*CAP
1 io_out[2] 0.000302001
2 *518:X 0.000302001
*RES
1 *518:X io_out[2] 26.0321 
*END

*D_NET *11 0.00068272
*CONN
*P io_out[3] O
*I *519:X O *D sky130_fd_sc_hd__buf_4
*CAP
1 io_out[3] 0.00034136
2 *519:X 0.00034136
3 io_out[3] *519:A 0
*RES
1 *519:X io_out[3] 26.8536 
*END

*D_NET *12 0.000681485
*CONN
*P io_out[4] O
*I *520:X O *D sky130_fd_sc_hd__buf_4
*CAP
1 io_out[4] 0.000340742
2 *520:X 0.000340742
*RES
1 *520:X io_out[4] 27.1036 
*END

*D_NET *13 0.000722079
*CONN
*P io_out[5] O
*I *521:X O *D sky130_fd_sc_hd__buf_4
*CAP
1 io_out[5] 0.000361039
2 *521:X 0.000361039
*RES
1 *521:X io_out[5] 27.2643 
*END

*D_NET *14 0.000722079
*CONN
*P io_out[6] O
*I *522:X O *D sky130_fd_sc_hd__buf_4
*CAP
1 io_out[6] 0.000361039
2 *522:X 0.000361039
3 io_out[6] *58:10 0
*RES
1 *522:X io_out[6] 27.2643 
*END

*D_NET *15 0.000761437
*CONN
*P io_out[7] O
*I *523:X O *D sky130_fd_sc_hd__buf_4
*CAP
1 io_out[7] 0.000380719
2 *523:X 0.000380719
3 io_out[7] *58:10 0
*RES
1 *523:X io_out[7] 27.675 
*END

*D_NET *16 0.000948992
*CONN
*P io_out[8] O
*I *527:LO O *D sky130_fd_sc_hd__conb_1
*CAP
1 io_out[8] 0.000474496
2 *527:LO 0.000474496
3 *79:DIODE io_out[8] 0
4 *2:8 io_out[8] 0
*RES
1 *527:LO io_out[8] 30.6571 
*END

*D_NET *17 0.000988356
*CONN
*P rst I
*I *84:DIODE I *D sky130_fd_sc_hd__diode_2
*I *517:A I *D sky130_fd_sc_hd__clkbuf_2
*CAP
1 rst 0.000287989
2 *84:DIODE 8.32096e-05
3 *517:A 0.00012298
4 *17:5 0.000494178
*RES
1 rst *17:5 7.5 
2 *17:5 *517:A 21.1036 
3 *17:5 *84:DIODE 20.0679 
*END

*D_NET *20 0.00139339
*CONN
*I *505:D I *D sky130_fd_sc_hd__dfxtp_2
*I *485:X O *D sky130_fd_sc_hd__o21ba_1
*CAP
1 *505:D 0.000696693
2 *485:X 0.000696693
3 *505:D *481:C 0
4 *505:D *481:D 0
5 *505:D *53:11 0
6 *505:D *60:7 0
*RES
1 *485:X *505:D 33.1402 
*END

*D_NET *21 0.00162623
*CONN
*I *501:D I *D sky130_fd_sc_hd__dfxtp_2
*I *488:X O *D sky130_fd_sc_hd__and2_1
*CAP
1 *501:D 0
2 *488:X 0.000813113
3 *21:11 0.000813113
4 *21:11 *476:C 0
5 *21:11 *484:A2 0
6 *21:11 *484:B1 0
7 *21:11 *22:13 0
8 *21:11 *37:40 0
*RES
1 *488:X *21:11 44.5366 
2 *21:11 *501:D 9.3 
*END

*D_NET *22 0.00202149
*CONN
*I *502:D I *D sky130_fd_sc_hd__dfxtp_2
*I *489:X O *D sky130_fd_sc_hd__and2_1
*CAP
1 *502:D 0
2 *489:X 0.00101075
3 *22:13 0.00101075
4 *22:13 *467:A 0
5 *22:13 *470:A 0
6 *22:13 *474:B 0
7 *22:13 *476:A 0
8 *22:13 *488:A 0
9 *22:13 *501:CLK 0
10 *22:13 *54:5 0
11 *21:11 *22:13 0
*RES
1 *489:X *22:13 48.6616 
2 *22:13 *502:D 9.3 
*END

*D_NET *23 0.00167292
*CONN
*I *503:D I *D sky130_fd_sc_hd__dfxtp_2
*I *490:X O *D sky130_fd_sc_hd__and2_1
*CAP
1 *503:D 0
2 *490:X 0.000836461
3 *23:11 0.000836461
4 *23:11 *485:B1_N 0
5 *23:11 *486:A3 0
6 *23:11 *486:A4 0
7 *23:11 *507:D 0
8 *23:11 *55:5 0
*RES
1 *490:X *23:11 45.1437 
2 *23:11 *503:D 9.3 
*END

*D_NET *24 0.00139938
*CONN
*I *504:D I *D sky130_fd_sc_hd__dfxtp_2
*I *491:X O *D sky130_fd_sc_hd__and2_1
*CAP
1 *504:D 0.000699688
2 *491:X 0.000699688
3 *504:D *486:A1 0
4 *504:D *30:5 0
5 *504:D *56:5 0
*RES
1 *491:X *504:D 33.1402 
*END

*D_NET *25 0.000924038
*CONN
*I *507:D I *D sky130_fd_sc_hd__dfxtp_1
*I *486:X O *D sky130_fd_sc_hd__a41o_1
*CAP
1 *507:D 0.000462019
2 *486:X 0.000462019
3 *507:D *486:A2 0
4 *507:D *499:A 0
5 *507:D *55:5 0
6 *507:D *56:11 0
7 *23:11 *507:D 0
*RES
1 *486:X *507:D 46.5687 
*END

*D_NET *26 0.00075509
*CONN
*I *500:D I *D sky130_fd_sc_hd__dfxtp_1
*I *472:X O *D sky130_fd_sc_hd__mux2_1
*CAP
1 *500:D 0.000377545
2 *472:X 0.000377545
*RES
1 *472:X *500:D 26.4795 
*END

*D_NET *27 0.000413441
*CONN
*I *506:D I *D sky130_fd_sc_hd__dfxtp_1
*I *469:X O *D sky130_fd_sc_hd__mux2_1
*CAP
1 *506:D 0.00020672
2 *469:X 0.00020672
3 *506:D *506:CLK 0
4 *506:D *510:A 0
*RES
1 *469:X *506:D 41.3009 
*END

*D_NET *28 0.00196175
*CONN
*I *482:C1 I *D sky130_fd_sc_hd__o221a_1
*I *476:A I *D sky130_fd_sc_hd__and3_1
*I *467:A I *D sky130_fd_sc_hd__or2_1
*I *460:Y O *D sky130_fd_sc_hd__inv_2
*CAP
1 *482:C1 0.00026086
2 *476:A 0.000246741
3 *467:A 0.00018396
4 *460:Y 2.56688e-05
5 *28:10 0.000694348
6 *28:7 0.000550176
7 *467:A *470:A 0
8 *467:A *53:56 0
9 *467:A *55:23 0
10 *476:A *474:B 0
11 *476:A *37:7 0
12 *476:A *37:40 0
13 *482:C1 *480:C1 0
14 *482:C1 *482:A2 0
15 *482:C1 *55:16 0
16 *482:C1 *56:20 0
17 *482:C1 *73:22 0
18 *28:7 *56:20 0
19 *28:10 *484:A3 0
20 *28:10 *53:43 0
21 *28:10 *55:16 0
22 *28:10 *55:23 0
23 *28:10 *56:20 0
24 *28:10 *56:30 0
25 *22:13 *467:A 0
26 *22:13 *476:A 0
*RES
1 *460:Y *28:7 18.8357 
2 *28:7 *28:10 15.8036 
3 *28:10 *467:A 13.1393 
4 *28:10 *476:A 32.9607 
5 *28:7 *482:C1 25.0857 
*END

*D_NET *29 0.000732551
*CONN
*I *495:D I *D sky130_fd_sc_hd__and4_1
*I *468:B I *D sky130_fd_sc_hd__or3_1
*I *496:B I *D sky130_fd_sc_hd__and4b_1
*I *461:Y O *D sky130_fd_sc_hd__inv_2
*CAP
1 *495:D 0
2 *468:B 6.06834e-05
3 *496:B 4.53482e-05
4 *461:Y 0.000183104
5 *29:8 0.000183171
6 *29:5 0.000260244
7 *468:B *53:65 0
8 *468:B *56:30 0
9 *496:B *494:D 0
10 *496:B *56:37 0
11 *29:5 *75:19 0
12 *29:8 *495:C 0
13 *29:8 *53:67 0
14 *29:8 *55:41 0
*RES
1 *461:Y *29:5 13.1214 
2 *29:5 *29:8 10.9464 
3 *29:8 *496:B 19.2464 
4 *29:8 *468:B 19.9429 
5 *29:5 *495:D 9.3 
*END

*D_NET *30 0.00320948
*CONN
*I *490:A I *D sky130_fd_sc_hd__and2_1
*I *489:A I *D sky130_fd_sc_hd__and2_1
*I *488:A I *D sky130_fd_sc_hd__and2_1
*I *476:B I *D sky130_fd_sc_hd__and3_1
*I *491:A I *D sky130_fd_sc_hd__and2_1
*I *462:Y O *D sky130_fd_sc_hd__inv_2
*CAP
1 *490:A 0
2 *489:A 0.000101392
3 *488:A 9.80534e-05
4 *476:B 6.20329e-05
5 *491:A 0
6 *462:Y 0.000222463
7 *30:27 0.000299553
8 *30:18 0.000877999
9 *30:14 0.00102069
10 *30:5 0.000527297
11 *476:B *476:C 0
12 *476:B *63:10 0
13 *488:A *58:10 0
14 *488:A *63:10 0
15 *30:5 *486:A1 0
16 *30:14 *485:B1_N 0
17 *30:14 *486:A1 0
18 *30:18 *485:A1 0
19 *30:18 *485:A2 0
20 *30:18 *485:B1_N 0
21 *30:18 *37:40 0
22 *30:18 *71:10 0
23 *30:27 *63:10 0
24 *504:D *30:5 0
25 *22:13 *488:A 0
*RES
1 *462:Y *30:5 13.9429 
2 *30:5 *491:A 9.3 
3 *30:5 *30:14 16.9464 
4 *30:14 *30:18 27.6429 
5 *30:18 *476:B 10.6571 
6 *30:18 *30:27 2.08929 
7 *30:27 *488:A 29.8536 
8 *30:27 *489:A 11.4786 
9 *30:14 *490:A 18.3 
*END

*D_NET *31 0.000295581
*CONN
*I *486:A3 I *D sky130_fd_sc_hd__a41o_1
*I *463:Y O *D sky130_fd_sc_hd__inv_2
*CAP
1 *486:A3 0.00014779
2 *463:Y 0.00014779
3 *486:A3 *55:8 0
4 *23:11 *486:A3 0
*RES
1 *463:Y *486:A3 40.0107 
*END

*D_NET *32 0.00107001
*CONN
*I *486:A4 I *D sky130_fd_sc_hd__a41o_1
*I *480:A2 I *D sky130_fd_sc_hd__o221a_1
*I *466:X O *D sky130_fd_sc_hd__and2b_1
*CAP
1 *486:A4 0.000312184
2 *480:A2 3.97185e-05
3 *466:X 0.000183104
4 *32:7 0.000535006
5 *480:A2 *55:8 0
6 *480:A2 *55:12 0
7 *486:A4 *463:A 0
8 *486:A4 *55:8 0
9 *486:A4 *56:11 0
10 *32:7 *477:B 0
11 *32:7 *480:C1 0
12 *23:11 *486:A4 0
*RES
1 *466:X *32:7 22.1214 
2 *32:7 *480:A2 19.3357 
3 *32:7 *486:A4 26.1571 
*END

*D_NET *33 0.00146623
*CONN
*I *468:C I *D sky130_fd_sc_hd__or3_1
*I *471:A I *D sky130_fd_sc_hd__nor2_1
*I *473:B I *D sky130_fd_sc_hd__or3b_4
*I *467:X O *D sky130_fd_sc_hd__or2_1
*CAP
1 *468:C 0
2 *471:A 0.000174548
3 *473:B 0.000126122
4 *467:X 0.000153937
5 *33:18 0.000453054
6 *33:6 0.000558565
7 *471:A *472:S 0
8 *473:B *461:A 0
9 *473:B *494:D 0
10 *473:B *54:18 0
11 *473:B *55:30 0
12 *33:6 *34:10 0
13 *33:6 *54:18 0
14 *33:6 *55:27 0
15 *33:6 *55:30 0
16 *33:18 *472:S 0
17 *33:18 *34:10 0
*RES
1 *467:X *33:6 22.3714 
2 *33:6 *473:B 21.3893 
3 *33:6 *33:18 14.875 
4 *33:18 *471:A 13.1571 
5 *33:18 *468:C 9.3 
*END

*D_NET *34 0.00154299
*CONN
*I *469:S I *D sky130_fd_sc_hd__mux2_1
*I *468:X O *D sky130_fd_sc_hd__or3_1
*CAP
1 *469:S 0
2 *468:X 0.000771493
3 *34:10 0.000771493
4 *34:10 *467:B 0
5 *34:10 *472:A1 0
6 *34:10 *472:S 0
7 *34:10 *51:10 0
8 *34:10 *54:18 0
9 *34:10 *55:16 0
10 *34:10 *55:23 0
11 *34:10 *55:27 0
12 *34:10 *56:11 0
13 *33:6 *34:10 0
14 *33:18 *34:10 0
*RES
1 *468:X *34:10 46.1393 
2 *34:10 *469:S 9.3 
*END

*D_NET *35 0.00103226
*CONN
*I *471:B I *D sky130_fd_sc_hd__nor2_1
*I *483:B I *D sky130_fd_sc_hd__and3_1
*I *470:Y O *D sky130_fd_sc_hd__nand2_1
*CAP
1 *471:B 0.000332173
2 *483:B 2.0535e-05
3 *470:Y 0.000163425
4 *35:5 0.000516132
5 *471:B *484:A3 0
6 *471:B *37:11 0
7 *471:B *37:19 0
8 *471:B *53:63 0
9 *471:B *63:10 0
10 *35:5 *37:19 0
*RES
1 *470:Y *35:5 12.7107 
2 *35:5 *483:B 9.72857 
3 *35:5 *471:B 34.8 
*END

*D_NET *36 0.000879584
*CONN
*I *472:S I *D sky130_fd_sc_hd__mux2_1
*I *471:Y O *D sky130_fd_sc_hd__nor2_1
*CAP
1 *472:S 0.000439792
2 *471:Y 0.000439792
3 *471:A *472:S 0
4 *33:18 *472:S 0
5 *34:10 *472:S 0
*RES
1 *471:Y *472:S 27.7786 
*END

*D_NET *37 0.00300449
*CONN
*I *475:B I *D sky130_fd_sc_hd__nor2_1
*I *482:A2 I *D sky130_fd_sc_hd__o221a_1
*I *483:C I *D sky130_fd_sc_hd__and3_1
*I *493:A2 I *D sky130_fd_sc_hd__a21oi_1
*I *492:A2 I *D sky130_fd_sc_hd__o21ai_1
*I *474:X O *D sky130_fd_sc_hd__or2_2
*CAP
1 *475:B 0
2 *482:A2 0.000272904
3 *483:C 0
4 *493:A2 0
5 *492:A2 0.000167994
6 *474:X 6.50276e-05
7 *37:40 0.000544529
8 *37:19 0.000692064
9 *37:11 0.000724694
10 *37:7 0.000537276
11 *482:A2 *485:A2 0
12 *482:A2 *56:20 0
13 *482:A2 *73:22 0
14 *492:A2 *493:B1 0
15 *492:A2 *510:A 0
16 *37:11 *53:63 0
17 *37:11 *63:10 0
18 *37:19 *470:A 0
19 *37:19 *493:A1 0
20 *37:19 *54:11 0
21 *37:19 *55:27 0
22 *37:40 *485:A2 0
23 *37:40 *38:8 0
24 *37:40 *53:63 0
25 *37:40 *56:20 0
26 *37:40 *56:30 0
27 *37:40 *63:10 0
28 *471:B *37:11 0
29 *471:B *37:19 0
30 *476:A *37:7 0
31 *476:A *37:40 0
32 *482:C1 *482:A2 0
33 *21:11 *37:40 0
34 *30:18 *37:40 0
35 *35:5 *37:19 0
*RES
1 *474:X *37:7 19.6571 
2 *37:7 *37:11 13.6964 
3 *37:11 *37:19 11 
4 *37:19 *492:A2 31.675 
5 *37:19 *493:A2 9.3 
6 *37:11 *483:C 9.3 
7 *37:7 *37:40 15.8393 
8 *37:40 *482:A2 34.4071 
9 *37:40 *475:B 9.3 
*END

*D_NET *38 0.000632486
*CONN
*I *476:C I *D sky130_fd_sc_hd__and3_1
*I *484:A2 I *D sky130_fd_sc_hd__o31a_1
*I *475:Y O *D sky130_fd_sc_hd__nor2_1
*CAP
1 *476:C 0.000222463
2 *484:A2 4.23535e-05
3 *475:Y 5.14266e-05
4 *38:8 0.000316243
5 *38:8 *485:A2 0
6 *38:8 *56:20 0
7 *476:B *476:C 0
8 *21:11 *476:C 0
9 *21:11 *484:A2 0
10 *37:40 *38:8 0
*RES
1 *475:Y *38:8 28.6393 
2 *38:8 *484:A2 10.2464 
3 *38:8 *476:C 14.0679 
*END

*D_NET *39 0.000823071
*CONN
*I *480:B1 I *D sky130_fd_sc_hd__o221a_1
*I *481:A_N I *D sky130_fd_sc_hd__and4b_1
*I *477:X O *D sky130_fd_sc_hd__and2b_1
*CAP
1 *480:B1 0.000195794
2 *481:A_N 0.000215742
3 *477:X 0
4 *39:4 0.000411536
5 *480:B1 *56:11 0
6 *480:B1 *60:50 0
7 *480:B1 *60:54 0
8 *481:A_N *466:A_N 0
9 *481:A_N *53:8 0
10 *481:A_N *54:65 0
11 *481:A_N *56:11 0
12 *481:A_N *60:50 0
*RES
1 *477:X *39:4 9.3 
2 *39:4 *481:A_N 32.6214 
3 *39:4 *480:B1 31.8357 
*END

*D_NET *40 0.000295581
*CONN
*I *480:B2 I *D sky130_fd_sc_hd__o221a_1
*I *478:X O *D sky130_fd_sc_hd__and2b_1
*CAP
1 *480:B2 0.00014779
2 *478:X 0.00014779
3 *480:B2 *480:C1 0
4 *480:B2 *485:B1_N 0
5 *480:B2 *55:8 0
*RES
1 *478:X *480:B2 40.0107 
*END

*D_NET *41 0.000816235
*CONN
*I *480:C1 I *D sky130_fd_sc_hd__o221a_1
*I *479:Y O *D sky130_fd_sc_hd__nand2_1
*CAP
1 *480:C1 0.000408118
2 *479:Y 0.000408118
3 *480:C1 *55:12 0
4 *480:C1 *55:16 0
5 *480:C1 *56:11 0
6 *480:C1 *73:25 0
7 *480:B2 *480:C1 0
8 *482:C1 *480:C1 0
9 *32:7 *480:C1 0
*RES
1 *479:Y *480:C1 46.35 
*END

*D_NET *42 0.000387325
*CONN
*I *482:B1 I *D sky130_fd_sc_hd__o221a_1
*I *480:X O *D sky130_fd_sc_hd__o221a_1
*CAP
1 *482:B1 0.000193662
2 *480:X 0.000193662
3 *482:B1 *485:B1_N 0
4 *482:B1 *55:12 0
5 *482:B1 *73:22 0
*RES
1 *480:X *482:B1 41.5107 
*END

*D_NET *43 0.000413485
*CONN
*I *482:B2 I *D sky130_fd_sc_hd__o221a_1
*I *481:X O *D sky130_fd_sc_hd__and4b_1
*CAP
1 *482:B2 0.000206743
2 *481:X 0.000206743
3 *482:B2 *482:A1 0
4 *482:B2 *55:16 0
*RES
1 *481:X *482:B2 41.2429 
*END

*D_NET *44 0.000370232
*CONN
*I *485:A1 I *D sky130_fd_sc_hd__o21ba_1
*I *482:X O *D sky130_fd_sc_hd__o221a_1
*CAP
1 *485:A1 0.000185116
2 *482:X 0.000185116
3 *485:A1 *485:A2 0
4 *485:A1 *73:11 0
5 *30:18 *485:A1 0
*RES
1 *482:X *485:A1 40.85 
*END

*D_NET *45 0.000363908
*CONN
*I *484:A3 I *D sky130_fd_sc_hd__o31a_1
*I *483:X O *D sky130_fd_sc_hd__and3_1
*CAP
1 *484:A3 0.000181954
2 *483:X 0.000181954
3 *484:A3 *53:43 0
4 *484:A3 *56:30 0
5 *471:B *484:A3 0
6 *28:10 *484:A3 0
*RES
1 *483:X *484:A3 41.2071 
*END

*D_NET *46 0.000986205
*CONN
*I *485:A2 I *D sky130_fd_sc_hd__o21ba_1
*I *484:X O *D sky130_fd_sc_hd__o31a_1
*CAP
1 *485:A2 0.000493102
2 *484:X 0.000493102
3 *485:A2 *485:B1_N 0
4 *485:A2 *56:20 0
5 *485:A2 *73:11 0
6 *485:A2 *73:22 0
7 *482:A2 *485:A2 0
8 *485:A1 *485:A2 0
9 *30:18 *485:A2 0
10 *37:40 *485:A2 0
11 *38:8 *485:A2 0
*RES
1 *484:X *485:A2 49.2071 
*END

*D_NET *47 0.000500056
*CONN
*I *493:B1 I *D sky130_fd_sc_hd__a21oi_1
*I *492:Y O *D sky130_fd_sc_hd__o21ai_1
*CAP
1 *493:B1 0.000250028
2 *492:Y 0.000250028
3 *493:B1 *492:A1 0
4 *493:B1 *76:11 0
5 *492:A2 *493:B1 0
*RES
1 *492:Y *493:B1 42.5643 
*END

*D_NET *48 0.00200528
*CONN
*I *511:A I *D sky130_fd_sc_hd__clkbuf_16
*I *510:A I *D sky130_fd_sc_hd__clkbuf_16
*I *509:X O *D sky130_fd_sc_hd__clkbuf_16
*CAP
1 *511:A 0
2 *510:A 0.000739172
3 *509:X 0.000263467
4 *48:8 0.00100264
5 *510:A *501:CLK 0
6 *510:A *506:CLK 0
7 *510:A *519:A 0
8 *510:A *52:8 0
9 *510:A *60:8 0
10 *510:A *60:10 0
11 *510:A *60:15 0
12 *510:A *75:19 0
13 *48:8 *506:CLK 0
14 *48:8 *60:8 0
15 *492:A2 *510:A 0
16 *506:D *510:A 0
*RES
1 *509:X *48:8 24.175 
2 *48:8 *510:A 37.55 
3 *48:8 *511:A 18.3 
*END

*D_NET *49 0.00181624
*CONN
*I *501:CLK I *D sky130_fd_sc_hd__dfxtp_2
*I *502:CLK I *D sky130_fd_sc_hd__dfxtp_2
*I *465:A I *D sky130_fd_sc_hd__inv_2
*I *464:A I *D sky130_fd_sc_hd__inv_2
*I *508:A I *D sky130_fd_sc_hd__buf_2
*I *510:X O *D sky130_fd_sc_hd__clkbuf_16
*CAP
1 *501:CLK 0.000198164
2 *502:CLK 0
3 *465:A 0
4 *464:A 8.4707e-05
5 *508:A 8.4707e-05
6 *510:X 7.46886e-05
7 *49:37 0.000388667
8 *49:27 0.000358612
9 *49:17 0.000360058
10 *49:6 0.000266637
11 *464:A *500:CLK 0
12 *49:6 *518:A 0
13 *49:17 *487:A 0
14 *49:17 *76:11 0
15 *49:27 *487:A 0
16 *49:27 *500:CLK 0
17 *510:A *501:CLK 0
18 *22:13 *501:CLK 0
*RES
1 *510:X *49:6 20.2464 
2 *49:6 *508:A 20.0679 
3 *49:6 *49:17 11.8571 
4 *49:17 *464:A 11.0679 
5 *49:17 *49:27 13.0179 
6 *49:27 *465:A 18.3 
7 *49:27 *49:37 13.625 
8 *49:37 *502:CLK 9.3 
9 *49:37 *501:CLK 31.8536 
*END

*D_NET *50 0.00312632
*CONN
*I *504:CLK I *D sky130_fd_sc_hd__dfxtp_2
*I *499:A I *D sky130_fd_sc_hd__inv_2
*I *503:CLK I *D sky130_fd_sc_hd__dfxtp_2
*I *497:A I *D sky130_fd_sc_hd__inv_2
*I *498:A I *D sky130_fd_sc_hd__inv_2
*I *511:X O *D sky130_fd_sc_hd__clkbuf_16
*CAP
1 *504:CLK 9.79505e-05
2 *499:A 0.000534766
3 *503:CLK 2.56688e-05
4 *497:A 0.000104386
5 *498:A 0
6 *511:X 0.00014659
7 *50:36 0.000718976
8 *50:27 0.000407871
9 *50:18 0.000671926
10 *50:9 0.000418187
11 *499:A *462:A 0
12 *499:A *507:CLK 0
13 *50:9 *506:CLK 0
14 *50:18 *505:CLK 0
15 *50:18 *506:CLK 0
16 *507:D *499:A 0
17 *509:A *50:9 0
18 *509:A *50:18 0
*RES
1 *511:X *50:9 30.7107 
2 *50:9 *498:A 9.3 
3 *50:9 *50:18 15.75 
4 *50:18 *497:A 20.4786 
5 *50:18 *50:27 7.71429 
6 *50:27 *503:CLK 18.8357 
7 *50:27 *50:36 2.25 
8 *50:36 *499:A 29.675 
9 *50:36 *504:CLK 20.8536 
*END

*D_NET *51 0.00125532
*CONN
*I *479:A I *D sky130_fd_sc_hd__nand2_1
*I *481:D I *D sky130_fd_sc_hd__and4b_1
*I *469:A1 I *D sky130_fd_sc_hd__mux2_1
*I *506:Q O *D sky130_fd_sc_hd__dfxtp_1
*CAP
1 *479:A 0.000180109
2 *481:D 0.000233877
3 *469:A1 0
4 *506:Q 8.87521e-05
5 *51:17 0.000538908
6 *51:10 0.000213673
7 *479:A *73:25 0
8 *481:D *478:A_N 0
9 *481:D *56:11 0
10 *51:10 *472:A1 0
11 *51:17 *73:25 0
12 *505:D *481:D 0
13 *34:10 *51:10 0
*RES
1 *506:Q *51:10 29.4786 
2 *51:10 *469:A1 9.3 
3 *51:10 *51:17 2.60714 
4 *51:17 *481:D 33.233 
5 *51:17 *479:A 13.1214 
*END

*D_NET *52 0.000694471
*CONN
*I *472:A0 I *D sky130_fd_sc_hd__mux2_1
*I *473:C_N I *D sky130_fd_sc_hd__or3b_4
*I *492:B1 I *D sky130_fd_sc_hd__o21ai_1
*I *500:Q O *D sky130_fd_sc_hd__dfxtp_1
*CAP
1 *472:A0 0.000160086
2 *473:C_N 0
3 *492:B1 0
4 *500:Q 6.30833e-05
5 *52:13 0.000284152
6 *52:8 0.000187149
7 *472:A0 *472:A1 0
8 *472:A0 *487:B 0
9 *472:A0 *54:18 0
10 *472:A0 *60:15 0
11 *52:8 *60:15 0
12 *52:13 *487:B 0
13 *52:13 *60:15 0
14 *510:A *52:8 0
*RES
1 *500:Q *52:8 28.9429 
2 *52:8 *492:B1 9.3 
3 *52:8 *52:13 2.58929 
4 *52:13 *473:C_N 9.3 
5 *52:13 *472:A0 31.2107 
*END

*D_NET *53 0.005111
*CONN
*I *474:A I *D sky130_fd_sc_hd__or2_2
*I *468:A I *D sky130_fd_sc_hd__or3_1
*I *496:A_N I *D sky130_fd_sc_hd__and4b_1
*I *494:C I *D sky130_fd_sc_hd__and4_1
*I *495:C I *D sky130_fd_sc_hd__and4_1
*I *470:A I *D sky130_fd_sc_hd__nand2_1
*I *466:A_N I *D sky130_fd_sc_hd__and2b_1
*I *478:A_N I *D sky130_fd_sc_hd__and2b_1
*I *481:B I *D sky130_fd_sc_hd__and4b_1
*I *501:Q O *D sky130_fd_sc_hd__dfxtp_2
*CAP
1 *474:A 0
2 *468:A 0
3 *496:A_N 0
4 *494:C 0.000286246
5 *495:C 5.66635e-05
6 *470:A 0.00026169
7 *466:A_N 7.46955e-05
8 *478:A_N 0.000463335
9 *481:B 0
10 *501:Q 0
11 *53:67 0.000364603
12 *53:65 0.00010569
13 *53:63 0.000305474
14 *53:56 0.000306184
15 *53:43 0.000687232
16 *53:11 0.000587401
17 *53:8 0.000734856
18 *53:4 0.00087693
19 *466:A_N *54:65 0
20 *470:A *55:27 0
21 *478:A_N *478:B 0
22 *478:A_N *56:11 0
23 *494:C *494:A 0
24 *494:C *494:D 0
25 *494:C *495:A 0
26 *494:C *56:37 0
27 *495:C *495:A 0
28 *53:8 *472:A1 0
29 *53:8 *484:B1 0
30 *53:8 *54:65 0
31 *53:8 *56:11 0
32 *53:43 *484:B1 0
33 *53:43 *55:23 0
34 *53:63 *56:30 0
35 *53:65 *495:A 0
36 *53:65 *56:30 0
37 *467:A *470:A 0
38 *467:A *53:56 0
39 *468:B *53:65 0
40 *471:B *53:63 0
41 *481:A_N *466:A_N 0
42 *481:A_N *53:8 0
43 *481:D *478:A_N 0
44 *484:A3 *53:43 0
45 *505:D *53:11 0
46 *22:13 *470:A 0
47 *28:10 *53:43 0
48 *29:8 *495:C 0
49 *29:8 *53:67 0
50 *37:11 *53:63 0
51 *37:19 *470:A 0
52 *37:40 *53:63 0
*RES
1 *501:Q *53:4 9.3 
2 *53:4 *53:8 22.625 
3 *53:8 *53:11 11.5893 
4 *53:11 *481:B 9.3 
5 *53:11 *478:A_N 37.7821 
6 *53:8 *466:A_N 20.175 
7 *53:4 *53:43 25.8036 
8 *53:43 *470:A 33.2821 
9 *53:43 *53:56 1.76786 
10 *53:56 *53:63 14.9464 
11 *53:63 *53:65 2.25 
12 *53:65 *53:67 0.580357 
13 *53:67 *495:C 19.7911 
14 *53:67 *494:C 24.9161 
15 *53:65 *496:A_N 18.3 
16 *53:63 *468:A 18.3 
17 *53:56 *474:A 9.3 
*END

*D_NET *54 0.00510612
*CONN
*I *474:B I *D sky130_fd_sc_hd__or2_2
*I *477:B I *D sky130_fd_sc_hd__and2b_1
*I *466:B I *D sky130_fd_sc_hd__and2b_1
*I *470:B I *D sky130_fd_sc_hd__nand2_1
*I *473:A I *D sky130_fd_sc_hd__or3b_4
*I *494:D I *D sky130_fd_sc_hd__and4_1
*I *461:A I *D sky130_fd_sc_hd__inv_2
*I *502:Q O *D sky130_fd_sc_hd__dfxtp_2
*CAP
1 *474:B 0.000450365
2 *477:B 0.000144778
3 *466:B 0
4 *470:B 0
5 *473:A 0
6 *494:D 0.000559151
7 *461:A 0.00018276
8 *502:Q 2.56688e-05
9 *54:65 0.000877803
10 *54:29 0.000559151
11 *54:18 0.000382981
12 *54:11 0.00045731
13 *54:7 0.000990114
14 *54:5 0.000476033
15 *461:A *520:A 0
16 *461:A *55:41 0
17 *461:A *75:19 0
18 *477:B *56:11 0
19 *494:D *494:B 0
20 *494:D *496:D 0
21 *494:D *56:37 0
22 *54:11 *472:A1 0
23 *54:11 *60:10 0
24 *54:18 *472:A1 0
25 *54:65 *472:A1 0
26 *54:65 *60:8 0
27 *54:65 *60:10 0
28 *54:65 *60:50 0
29 *466:A_N *54:65 0
30 *472:A0 *54:18 0
31 *473:B *461:A 0
32 *473:B *494:D 0
33 *473:B *54:18 0
34 *476:A *474:B 0
35 *481:A_N *54:65 0