*SPEF "ieee 1481-1999"
*DESIGN "wrapped_6502"
*DATE "11:11:11 Fri 11 11, 1111"
*VENDOR "OpenRCX"
*PROGRAM "Parallel Extraction"
*VERSION "1.0"
*DESIGN_FLOW "NAME_SCOPE LOCAL" "PIN_CAP NONE"
*DIVIDER /
*DELIMITER :
*BUS_DELIMITER []
*T_UNIT 1 NS
*C_UNIT 1 PF
*R_UNIT 1 OHM
*L_UNIT 1 HENRY

*NAME_MAP
*1 clk
*2 io_in[0]
*3 io_in[1]
*4 io_in[2]
*5 io_in[3]
*6 io_in[4]
*7 io_in[5]
*8 io_in[6]
*9 io_in[7]
*10 io_in[8]
*11 io_in[9]
*12 io_oeb
*13 io_out[0]
*14 io_out[10]
*15 io_out[11]
*16 io_out[12]
*17 io_out[13]
*18 io_out[14]
*19 io_out[15]
*20 io_out[16]
*21 io_out[17]
*22 io_out[18]
*23 io_out[19]
*24 io_out[1]
*25 io_out[20]
*26 io_out[21]
*27 io_out[22]
*28 io_out[23]
*29 io_out[24]
*30 io_out[25]
*31 io_out[26]
*32 io_out[2]
*33 io_out[3]
*34 io_out[4]
*35 io_out[5]
*36 io_out[6]
*37 io_out[7]
*38 net91
*39 net92
*40 rst
*43 MOS6502\.ABH\[0\]
*44 MOS6502\.ABH\[1\]
*45 MOS6502\.ABH\[2\]
*46 MOS6502\.ABH\[3\]
*47 MOS6502\.ABH\[4\]
*48 MOS6502\.ABH\[5\]
*49 MOS6502\.ABH\[6\]
*50 MOS6502\.ABH\[7\]
*51 MOS6502\.ABL\[0\]
*52 MOS6502\.ABL\[1\]
*53 MOS6502\.ABL\[2\]
*54 MOS6502\.ABL\[3\]
*55 MOS6502\.ABL\[4\]
*56 MOS6502\.ABL\[5\]
*57 MOS6502\.ABL\[6\]
*58 MOS6502\.ABL\[7\]
*59 MOS6502\.ADD\[0\]
*60 MOS6502\.ADD\[1\]
*61 MOS6502\.ADD\[2\]
*62 MOS6502\.ADD\[3\]
*63 MOS6502\.ADD\[4\]
*64 MOS6502\.ADD\[5\]
*65 MOS6502\.ADD\[6\]
*66 MOS6502\.ADD\[7\]
*67 MOS6502\.AI\[7\]
*68 MOS6502\.ALU\.AI7
*69 MOS6502\.ALU\.BI7
*70 MOS6502\.ALU\.CO
*71 MOS6502\.ALU\.HC
*72 MOS6502\.ALU\.temp\[0\]
*73 MOS6502\.ALU\.temp\[1\]
*74 MOS6502\.ALU\.temp\[2\]
*75 MOS6502\.ALU\.temp\[3\]
*76 MOS6502\.ALU\.temp\[4\]
*77 MOS6502\.ALU\.temp\[5\]
*78 MOS6502\.ALU\.temp\[6\]
*79 MOS6502\.ALU\.temp\[7\]
*80 MOS6502\.ALU\.temp_BI\[7\]
*81 MOS6502\.ALU\.temp_HC
*82 MOS6502\.AXYS\[0\]\[0\]
*83 MOS6502\.AXYS\[0\]\[1\]
*84 MOS6502\.AXYS\[0\]\[2\]
*85 MOS6502\.AXYS\[0\]\[3\]
*86 MOS6502\.AXYS\[0\]\[4\]
*87 MOS6502\.AXYS\[0\]\[5\]
*88 MOS6502\.AXYS\[0\]\[6\]
*89 MOS6502\.AXYS\[0\]\[7\]
*90 MOS6502\.AXYS\[1\]\[0\]
*91 MOS6502\.AXYS\[1\]\[1\]
*92 MOS6502\.AXYS\[1\]\[2\]
*93 MOS6502\.AXYS\[1\]\[3\]
*94 MOS6502\.AXYS\[1\]\[4\]
*95 MOS6502\.AXYS\[1\]\[5\]
*96 MOS6502\.AXYS\[1\]\[6\]
*97 MOS6502\.AXYS\[1\]\[7\]
*98 MOS6502\.AXYS\[2\]\[0\]
*99 MOS6502\.AXYS\[2\]\[1\]
*100 MOS6502\.AXYS\[2\]\[2\]
*101 MOS6502\.AXYS\[2\]\[3\]
*102 MOS6502\.AXYS\[2\]\[4\]
*103 MOS6502\.AXYS\[2\]\[5\]
*104 MOS6502\.AXYS\[2\]\[6\]
*105 MOS6502\.AXYS\[2\]\[7\]
*106 MOS6502\.AXYS\[3\]\[0\]
*107 MOS6502\.AXYS\[3\]\[1\]
*108 MOS6502\.AXYS\[3\]\[2\]
*109 MOS6502\.AXYS\[3\]\[3\]
*110 MOS6502\.AXYS\[3\]\[4\]
*111 MOS6502\.AXYS\[3\]\[5\]
*112 MOS6502\.AXYS\[3\]\[6\]
*113 MOS6502\.AXYS\[3\]\[7\]
*114 MOS6502\.C
*115 MOS6502\.D
*116 MOS6502\.I
*117 MOS6502\.IRHOLD\[0\]
*118 MOS6502\.IRHOLD\[1\]
*119 MOS6502\.IRHOLD\[2\]
*120 MOS6502\.IRHOLD\[3\]
*121 MOS6502\.IRHOLD\[4\]
*122 MOS6502\.IRHOLD\[5\]
*123 MOS6502\.IRHOLD\[6\]
*124 MOS6502\.IRHOLD\[7\]
*125 MOS6502\.IRHOLD_valid
*126 MOS6502\.IR\[5\]
*127 MOS6502\.IR\[6\]
*128 MOS6502\.IR\[7\]
*129 MOS6502\.N
*130 MOS6502\.NMI_1
*131 MOS6502\.NMI_edge
*132 MOS6502\.PC\[0\]
*133 MOS6502\.PC\[10\]
*134 MOS6502\.PC\[11\]
*135 MOS6502\.PC\[12\]
*136 MOS6502\.PC\[13\]
*137 MOS6502\.PC\[14\]
*138 MOS6502\.PC\[15\]
*139 MOS6502\.PC\[1\]
*140 MOS6502\.PC\[2\]
*141 MOS6502\.PC\[3\]
*142 MOS6502\.PC\[4\]
*143 MOS6502\.PC\[5\]
*144 MOS6502\.PC\[6\]
*145 MOS6502\.PC\[7\]
*146 MOS6502\.PC\[8\]
*147 MOS6502\.PC\[9\]
*148 MOS6502\.V
*149 MOS6502\.Z
*150 MOS6502\.adc_bcd
*151 MOS6502\.adc_sbc
*152 MOS6502\.adj_bcd
*153 MOS6502\.backwards
*154 MOS6502\.bit_ins
*155 MOS6502\.clc
*156 MOS6502\.cld
*157 MOS6502\.cli
*158 MOS6502\.clv
*159 MOS6502\.compare
*160 MOS6502\.cond_code\[0\]
*161 MOS6502\.cond_code\[1\]
*162 MOS6502\.cond_code\[2\]
*163 MOS6502\.dst_reg\[0\]
*164 MOS6502\.dst_reg\[1\]
*165 MOS6502\.inc
*166 MOS6502\.index_y
*167 MOS6502\.load_only
*168 MOS6502\.load_reg
*169 MOS6502\.op\[0\]
*170 MOS6502\.op\[1\]
*171 MOS6502\.op\[2\]
*172 MOS6502\.op\[3\]
*173 MOS6502\.php
*174 MOS6502\.plp
*175 MOS6502\.res
*176 MOS6502\.rotate
*177 MOS6502\.sec
*178 MOS6502\.sed
*179 MOS6502\.sei
*180 MOS6502\.shift
*181 MOS6502\.shift_right
*182 MOS6502\.src_reg\[0\]
*183 MOS6502\.src_reg\[1\]
*184 MOS6502\.state\[0\]
*185 MOS6502\.state\[1\]
*186 MOS6502\.state\[2\]
*187 MOS6502\.state\[3\]
*188 MOS6502\.state\[4\]
*189 MOS6502\.state\[5\]
*190 MOS6502\.store
*191 MOS6502\.write_back
*192 _0000_
*193 _0001_
*194 _0002_
*195 _0003_
*196 _0004_
*197 _0005_
*198 _0006_
*199 _0007_
*200 _0008_
*201 _0009_
*202 _0010_
*203 _0011_
*204 _0012_
*205 _0013_
*206 _0014_
*207 _0015_
*208 _0016_
*209 _0017_
*210 _0018_
*211 _0019_
*212 _0020_
*213 _0021_
*214 _0022_
*215 _0023_
*216 _0024_
*217 _0025_
*218 _0026_
*219 _0027_
*220 _0028_
*221 _0029_
*222 _0030_
*223 _0031_
*224 _0032_
*225 _0033_
*226 _0034_
*227 _0035_
*228 _0036_
*229 _0037_
*230 _0038_
*231 _0039_
*232 _0040_
*233 _0041_
*234 _0042_
*235 _0043_
*236 _0044_
*237 _0045_
*238 _0046_
*239 _0047_
*240 _0048_
*241 _0049_
*242 _0050_
*243 _0051_
*244 _0052_
*245 _0053_
*246 _0054_
*247 _0055_
*248 _0056_
*249 _0057_
*250 _0058_
*251 _0059_
*252 _0060_
*253 _0061_
*254 _0062_
*255 _0063_
*256 _0064_
*257 _0065_
*258 _0066_
*259 _0067_
*260 _0068_
*261 _0069_
*262 _0070_
*263 _0071_
*264 _0072_
*265 _0073_
*266 _0074_
*267 _0075_
*268 _0076_
*269 _0077_
*270 _0078_
*271 _0079_
*272 _0080_
*273 _0081_
*274 _0082_
*275 _0083_
*276 _0084_
*277 _0085_
*278 _0086_
*279 _0087_
*280 _0088_
*281 _0089_
*282 _0090_
*283 _0091_
*284 _0092_
*285 _0093_
*286 _0094_
*287 _0095_
*288 _0096_
*289 _0097_
*290 _0098_
*291 _0099_
*292 _0100_
*293 _0101_
*294 _0102_
*295 _0103_
*296 _0104_
*297 _0105_
*298 _0106_
*299 _0107_
*300 _0108_
*301 _0109_
*302 _0110_
*303 _0111_
*304 _0112_
*305 _0113_
*306 _0114_
*307 _0115_
*308 _0116_
*309 _0117_
*310 _0118_
*311 _0119_
*312 _0120_
*313 _0121_
*314 _0122_
*315 _0123_
*316 _0124_
*317 _0125_
*318 _0126_
*319 _0127_
*320 _0128_
*321 _0129_
*322 _0130_
*323 _0131_
*324 _0132_
*325 _0133_
*326 _0134_
*327 _0135_
*328 _0136_
*329 _0137_
*330 _0138_
*331 _0139_
*332 _0140_
*333 _0141_
*334 _0142_
*335 _0143_
*336 _0144_
*337 _0145_
*338 _0146_
*339 _0147_
*340 _0148_
*341 _0149_
*342 _0150_
*343 _0151_
*344 _0152_
*345 _0153_
*346 _0154_
*347 _0155_
*348 _0156_
*349 _0157_
*350 _0158_
*351 _0159_
*352 _0160_
*353 _0161_
*354 _0162_
*355 _0163_
*356 _0164_
*357 _0165_
*358 _0166_
*359 _0167_
*360 _0168_
*361 _0169_
*362 _0170_
*363 _0171_
*364 _0172_
*365 _0173_
*366 _0174_
*367 _0175_
*368 _0176_
*369 _0177_
*370 _0178_
*371 _0179_
*372 _0180_
*373 _0181_
*374 _0182_
*375 _0183_
*376 _0184_
*377 _0185_
*378 _0186_
*379 _0187_
*380 _0188_
*381 _0189_
*382 _0190_
*383 _0191_
*384 _0192_
*385 _0193_
*386 _0194_
*387 _0195_
*388 _0196_
*389 _0197_
*390 _0198_
*391 _0199_
*392 _0200_
*393 _0201_
*394 _0202_
*395 _0203_
*396 _0204_
*397 _0205_
*398 _0206_
*399 _0207_
*400 _0208_
*401 _0209_
*402 _0210_
*403 _0211_
*404 _0212_
*405 _0213_
*406 _0214_
*407 _0215_
*408 _0216_
*409 _0217_
*410 _0218_
*411 _0219_
*412 _0220_
*413 _0221_
*414 _0222_
*415 _0223_
*416 _0224_
*417 _0225_
*418 _0226_
*419 _0227_
*420 _0228_
*421 _0229_
*422 _0230_
*423 _0231_
*424 _0232_
*425 _0233_
*426 _0234_
*427 _0235_
*428 _0236_
*429 _0237_
*430 _0238_
*431 _0239_
*432 _0240_
*433 _0241_
*434 _0242_
*435 _0243_
*436 _0244_
*437 _0245_
*438 _0246_
*439 _0247_
*440 _0248_
*441 _0249_
*442 _0250_
*443 _0251_
*444 _0252_
*445 _0253_
*446 _0254_
*447 _0255_
*448 _0256_
*449 _0257_
*450 _0258_
*451 _0259_
*452 _0260_
*453 _0261_
*454 _0262_
*455 _0263_
*456 _0264_
*457 _0265_
*458 _0266_
*459 _0267_
*460 _0268_
*461 _0269_
*462 _0270_
*463 _0271_
*464 _0272_
*465 _0273_
*466 _0274_
*467 _0275_
*468 _0276_
*469 _0277_
*470 _0278_
*471 _0279_
*472 _0280_
*473 _0281_
*474 _0282_
*475 _0283_
*476 _0284_
*477 _0285_
*478 _0286_
*479 _0287_
*480 _0288_
*481 _0289_
*482 _0290_
*483 _0291_
*484 _0292_
*485 _0293_
*486 _0294_
*487 _0295_
*488 _0296_
*489 _0297_
*490 _0298_
*491 _0299_
*492 _0300_
*493 _0301_
*494 _0302_
*495 _0303_
*496 _0304_
*497 _0305_
*498 _0306_
*499 _0307_
*500 _0308_
*501 _0309_
*502 _0310_
*503 _0311_
*504 _0312_
*505 _0313_
*506 _0314_
*507 _0315_
*508 _0316_
*509 _0317_
*510 _0318_
*511 _0319_
*512 _0320_
*513 _0321_
*514 _0322_
*515 _0323_
*516 _0324_
*517 _0325_
*518 _0326_
*519 _0327_
*520 _0328_
*521 _0329_
*522 _0330_
*523 _0331_
*524 _0332_
*525 _0333_
*526 _0334_
*527 _0335_
*528 _0336_
*529 _0337_
*530 _0338_
*531 _0339_
*532 _0340_
*533 _0341_
*534 _0342_
*535 _0343_
*536 _0344_
*537 _0345_
*538 _0346_
*539 _0347_
*540 _0348_
*541 _0349_
*542 _0350_
*543 _0351_
*544 _0352_
*545 _0353_
*546 _0354_
*547 _0355_
*548 _0356_
*549 _0357_
*550 _0358_
*551 _0359_
*552 _0360_
*553 _0361_
*554 _0362_
*555 _0363_
*556 _0364_
*557 _0365_
*558 _0366_
*559 _0367_
*560 _0368_
*561 _0369_
*562 _0370_
*563 _0371_
*564 _0372_
*565 _0373_
*566 _0374_
*567 _0375_
*568 _0376_
*569 _0377_
*570 _0378_
*571 _0379_
*572 _0380_
*573 _0381_
*574 _0382_
*575 _0383_
*576 _0384_
*577 _0385_
*578 _0386_
*579 _0387_
*580 _0388_
*581 _0389_
*582 _0390_
*583 _0391_
*584 _0392_
*585 _0393_
*586 _0394_
*587 _0395_
*588 _0396_
*589 _0397_
*590 _0398_
*591 _0399_
*592 _0400_
*593 _0401_
*594 _0402_
*595 _0403_
*596 _0404_
*597 _0405_
*598 _0406_
*599 _0407_
*600 _0408_
*601 _0409_
*602 _0410_
*603 _0411_
*604 _0412_
*605 _0413_
*606 _0414_
*607 _0415_
*608 _0416_
*609 _0417_
*610 _0418_
*611 _0419_
*612 _0420_
*613 _0421_
*614 _0422_
*615 _0423_
*616 _0424_
*617 _0425_
*618 _0426_
*619 _0427_
*620 _0428_
*621 _0429_
*622 _0430_
*623 _0431_
*624 _0432_
*625 _0433_
*626 _0434_
*627 _0435_
*628 _0436_
*629 _0437_
*630 _0438_
*631 _0439_
*632 _0440_
*633 _0441_
*634 _0442_
*635 _0443_
*636 _0444_
*637 _0445_
*638 _0446_
*639 _0447_
*640 _0448_
*641 _0449_
*642 _0450_
*643 _0451_
*644 _0452_
*645 _0453_
*646 _0454_
*647 _0455_
*648 _0456_
*649 _0457_
*650 _0458_
*651 _0459_
*652 _0460_
*653 _0461_
*654 _0462_
*655 _0463_
*656 _0464_
*657 _0465_
*658 _0466_
*659 _0467_
*660 _0468_
*661 _0469_
*662 _0470_
*663 _0471_
*664 _0472_
*665 _0473_
*666 _0474_
*667 _0475_
*668 _0476_
*669 _0477_
*670 _0478_
*671 _0479_
*672 _0480_
*673 _0481_
*674 _0482_
*675 _0483_
*676 _0484_
*677 _0485_
*678 _0486_
*679 _0487_
*680 _0488_
*681 _0489_
*682 _0490_
*683 _0491_
*684 _0492_
*685 _0493_
*686 _0494_
*687 _0495_
*688 _0496_
*689 _0497_
*690 _0498_
*691 _0499_
*692 _0500_
*693 _0501_
*694 _0502_
*695 _0503_
*696 _0504_
*697 _0505_
*698 _0506_
*699 _0507_
*700 _0508_
*701 _0509_
*702 _0510_
*703 _0511_
*704 _0512_
*705 _0513_
*706 _0514_
*707 _0515_
*708 _0516_
*709 _0517_
*710 _0518_
*711 _0519_
*712 _0520_
*713 _0521_
*714 _0522_
*715 _0523_
*716 _0524_
*717 _0525_
*718 _0526_
*719 _0527_
*720 _0528_
*721 _0529_
*722 _0530_
*723 _0531_
*724 _0532_
*725 _0533_
*726 _0534_
*727 _0535_
*728 _0536_
*729 _0537_
*730 _0538_
*731 _0539_
*732 _0540_
*733 _0541_
*734 _0542_
*735 _0543_
*736 _0544_
*737 _0545_
*738 _0546_
*739 _0547_
*740 _0548_
*741 _0549_
*742 _0550_
*743 _0551_
*744 _0552_
*745 _0553_
*746 _0554_
*747 _0555_
*748 _0556_
*749 _0557_
*750 _0558_
*751 _0559_
*752 _0560_
*753 _0561_
*754 _0562_
*755 _0563_
*756 _0564_
*757 _0565_
*758 _0566_
*759 _0567_
*760 _0568_
*761 _0569_
*762 _0570_
*763 _0571_
*764 _0572_
*765 _0573_
*766 _0574_
*767 _0575_
*768 _0576_
*769 _0577_
*770 _0578_
*771 _0579_
*772 _0580_
*773 _0581_
*774 _0582_
*775 _0583_
*776 _0584_
*777 _0585_
*778 _0586_
*779 _0587_
*780 _0588_
*781 _0589_
*782 _0590_
*783 _0591_
*784 _0592_
*785 _0593_
*786 _0594_
*787 _0595_
*788 _0596_
*789 _0597_
*790 _0598_
*791 _0599_
*792 _0600_
*793 _0601_
*794 _0602_
*795 _0603_
*796 _0604_
*797 _0605_
*798 _0606_
*799 _0607_
*800 _0608_
*801 _0609_
*802 _0610_
*803 _0611_
*804 _0612_
*805 _0613_
*806 _0614_
*807 _0615_
*808 _0616_
*809 _0617_
*810 _0618_
*811 _0619_
*812 _0620_
*813 _0621_
*814 _0622_
*815 _0623_
*816 _0624_
*817 _0625_
*818 _0626_
*819 _0627_
*820 _0628_
*821 _0629_
*822 _0630_
*823 _0631_
*824 _0632_
*825 _0633_
*826 _0634_
*827 _0635_
*828 _0636_
*829 _0637_
*830 _0638_
*831 _0639_
*832 _0640_
*833 _0641_
*834 _0642_
*835 _0643_
*836 _0644_
*837 _0645_
*838 _0646_
*839 _0647_
*840 _0648_
*841 _0649_
*842 _0650_
*843 _0651_
*844 _0652_
*845 _0653_
*846 _0654_
*847 _0655_
*848 _0656_
*849 _0657_
*850 _0658_
*851 _0659_
*852 _0660_
*853 _0661_
*854 _0662_
*855 _0663_
*856 _0664_
*857 _0665_
*858 _0666_
*859 _0667_
*860 _0668_
*861 _0669_
*862 _0670_
*863 _0671_
*864 _0672_
*865 _0673_
*866 _0674_
*867 _0675_
*868 _0676_
*869 _0677_
*870 _0678_
*871 _0679_
*872 _0680_
*873 _0681_
*874 _0682_
*875 _0683_
*876 _0684_
*877 _0685_
*878 _0686_
*879 _0687_
*880 _0688_
*881 _0689_
*882 _0690_
*883 _0691_
*884 _0692_
*885 _0693_
*886 _0694_
*887 _0695_
*888 _0696_
*889 _0697_
*890 _0698_
*891 _0699_
*892 _0700_
*893 _0701_
*894 _0702_
*895 _0703_
*896 _0704_
*897 _0705_
*898 _0706_
*899 _0707_
*900 _0708_
*901 _0709_
*902 _0710_
*903 _0711_
*904 _0712_
*905 _0713_
*906 _0714_
*907 _0715_
*908 _0716_
*909 _0717_
*910 _0718_
*911 _0719_
*912 _0720_
*913 _0721_
*914 _0722_
*915 _0723_
*916 _0724_
*917 _0725_
*918 _0726_
*919 _0727_
*920 _0728_
*921 _0729_
*922 _0730_
*923 _0731_
*924 _0732_
*925 _0733_
*926 _0734_
*927 _0735_
*928 _0736_
*929 _0737_
*930 _0738_
*931 _0739_
*932 _0740_
*933 _0741_
*934 _0742_
*935 _0743_
*936 _0744_
*937 _0745_
*938 _0746_
*939 _0747_
*940 _0748_
*941 _0749_
*942 _0750_
*943 _0751_
*944 _0752_
*945 _0753_
*946 _0754_
*947 _0755_
*948 _0756_
*949 _0757_
*950 _0758_
*951 _0759_
*952 _0760_
*953 _0761_
*954 _0762_
*955 _0763_
*956 _0764_
*957 _0765_
*958 _0766_
*959 _0767_
*960 _0768_
*961 _0769_
*962 _0770_
*963 _0771_
*964 _0772_
*965 _0773_
*966 _0774_
*967 _0775_
*968 _0776_
*969 _0777_
*970 _0778_
*971 _0779_
*972 _0780_
*973 _0781_
*974 _0782_
*975 _0783_
*976 _0784_
*977 _0785_
*978 _0786_
*979 _0787_
*980 _0788_
*981 _0789_
*982 _0790_
*983 _0791_
*984 _0792_
*985 _0793_
*986 _0794_
*987 _0795_
*988 _0796_
*989 _0797_
*990 _0798_
*991 _0799_
*992 _0800_
*993 _0801_
*994 _0802_
*995 _0803_
*996 _0804_
*997 _0805_
*998 _0806_
*999 _0807_
*1000 _0808_
*1001 _0809_
*1002 _0810_
*1003 _0811_
*1004 _0812_
*1005 _0813_
*1006 _0814_
*1007 _0815_
*1008 _0816_
*1009 _0817_
*1010 _0818_
*1011 _0819_
*1012 _0820_
*1013 _0821_
*1014 _0822_
*1015 _0823_
*1016 _0824_
*1017 _0825_
*1018 _0826_
*1019 _0827_
*1020 clknet_0_clk
*1021 clknet_4_0_0_clk
*1022 clknet_4_10_0_clk
*1023 clknet_4_11_0_clk
*1024 clknet_4_12_0_clk
*1025 clknet_4_13_0_clk
*1026 clknet_4_14_0_clk
*1027 clknet_4_15_0_clk
*1028 clknet_4_1_0_clk
*1029 clknet_4_2_0_clk
*1030 clknet_4_3_0_clk
*1031 clknet_4_4_0_clk
*1032 clknet_4_5_0_clk
*1033 clknet_4_6_0_clk
*1034 clknet_4_7_0_clk
*1035 clknet_4_8_0_clk
*1036 clknet_4_9_0_clk
*1037 net1
*1038 net10
*1039 net11
*1040 net12
*1041 net13
*1042 net14
*1043 net15
*1044 net16
*1045 net17
*1046 net18
*1047 net19
*1048 net2
*1049 net20
*1050 net21
*1051 net22
*1052 net23
*1053 net24
*1054 net25
*1055 net26
*1056 net27
*1057 net28
*1058 net29
*1059 net3
*1060 net30
*1061 net31
*1062 net32
*1063 net33
*1064 net34
*1065 net35
*1066 net36
*1067 net37
*1068 net38
*1069 net39
*1070 net4
*1071 net40
*1072 net41
*1073 net42
*1074 net43
*1075 net44
*1076 net45
*1077 net46
*1078 net47
*1079 net48
*1080 net49
*1081 net5
*1082 net50
*1083 net51
*1084 net52
*1085 net53
*1086 net54
*1087 net55
*1088 net56
*1089 net57
*1090 net58
*1091 net59
*1092 net6
*1093 net60
*1094 net61
*1095 net62
*1096 net63
*1097 net64
*1098 net65
*1099 net66
*1100 net67
*1101 net68
*1102 net69
*1103 net7
*1104 net70
*1105 net71
*1106 net72
*1107 net73
*1108 net74
*1109 net75
*1110 net76
*1111 net77
*1112 net78
*1113 net79
*1114 net8
*1115 net80
*1116 net81
*1117 net82
*1118 net83
*1119 net84
*1120 net85
*1121 net86
*1122 net87
*1123 net88
*1124 net89
*1125 net9
*1126 net90
*1127 FILLER_0_109
*1128 FILLER_0_113
*1129 FILLER_0_125
*1130 FILLER_0_137
*1131 FILLER_0_141
*1132 FILLER_0_15
*1133 FILLER_0_153
*1134 FILLER_0_165
*1135 FILLER_0_169
*1136 FILLER_0_181
*1137 FILLER_0_193
*1138 FILLER_0_197
*1139 FILLER_0_209
*1140 FILLER_0_221
*1141 FILLER_0_225
*1142 FILLER_0_237
*1143 FILLER_0_249
*1144 FILLER_0_253
*1145 FILLER_0_265
*1146 FILLER_0_27
*1147 FILLER_0_277
*1148 FILLER_0_281
*1149 FILLER_0_29
*1150 FILLER_0_293
*1151 FILLER_0_3
*1152 FILLER_0_305
*1153 FILLER_0_309
*1154 FILLER_0_321
*1155 FILLER_0_333
*1156 FILLER_0_337
*1157 FILLER_0_349
*1158 FILLER_0_361
*1159 FILLER_0_365
*1160 FILLER_0_377
*1161 FILLER_0_389
*1162 FILLER_0_393
*1163 FILLER_0_405
*1164 FILLER_0_41
*1165 FILLER_0_53
*1166 FILLER_0_57
*1167 FILLER_0_69
*1168 FILLER_0_81
*1169 FILLER_0_85
*1170 FILLER_0_97
*1171 FILLER_10_122
*1172 FILLER_10_131
*1173 FILLER_10_139
*1174 FILLER_10_141
*1175 FILLER_10_15
*1176 FILLER_10_158
*1177 FILLER_10_162
*1178 FILLER_10_166
*1179 FILLER_10_178
*1180 FILLER_10_187
*1181 FILLER_10_195
*1182 FILLER_10_197
*1183 FILLER_10_205
*1184 FILLER_10_218
*1185 FILLER_10_238
*1186 FILLER_10_250
*1187 FILLER_10_253
*1188 FILLER_10_257
*1189 FILLER_10_267
*1190 FILLER_10_27
*1191 FILLER_10_29
*1192 FILLER_10_291
*1193 FILLER_10_3
*1194 FILLER_10_300
*1195 FILLER_10_309
*1196 FILLER_10_318
*1197 FILLER_10_322
*1198 FILLER_10_339
*1199 FILLER_10_352
*1200 FILLER_10_361
*1201 FILLER_10_365
*1202 FILLER_10_380
*1203 FILLER_10_388
*1204 FILLER_10_405
*1205 FILLER_10_41
*1206 FILLER_10_53
*1207 FILLER_10_65
*1208 FILLER_10_77
*1209 FILLER_10_83
*1210 FILLER_10_85
*1211 FILLER_10_97
*1212 FILLER_11_105
*1213 FILLER_11_111
*1214 FILLER_11_113
*1215 FILLER_11_120
*1216 FILLER_11_128
*1217 FILLER_11_136
*1218 FILLER_11_146
*1219 FILLER_11_15
*1220 FILLER_11_166
*1221 FILLER_11_169
*1222 FILLER_11_177
*1223 FILLER_11_194
*1224 FILLER_11_200
*1225 FILLER_11_206
*1226 FILLER_11_215
*1227 FILLER_11_223
*1228 FILLER_11_225
*1229 FILLER_11_237
*1230 FILLER_11_249
*1231 FILLER_11_268
*1232 FILLER_11_27
*1233 FILLER_11_281
*1234 FILLER_11_296
*1235 FILLER_11_3
*1236 FILLER_11_309
*1237 FILLER_11_329
*1238 FILLER_11_335
*1239 FILLER_11_337
*1240 FILLER_11_356
*1241 FILLER_11_384
*1242 FILLER_11_39
*1243 FILLER_11_393
*1244 FILLER_11_404
*1245 FILLER_11_51
*1246 FILLER_11_55
*1247 FILLER_11_57
*1248 FILLER_11_69
*1249 FILLER_11_81
*1250 FILLER_11_93
*1251 FILLER_12_109
*1252 FILLER_12_121
*1253 FILLER_12_133
*1254 FILLER_12_139
*1255 FILLER_12_141
*1256 FILLER_12_149
*1257 FILLER_12_15
*1258 FILLER_12_160
*1259 FILLER_12_173
*1260 FILLER_12_180
*1261 FILLER_12_186
*1262 FILLER_12_194
*1263 FILLER_12_197
*1264 FILLER_12_206
*1265 FILLER_12_212
*1266 FILLER_12_222
*1267 FILLER_12_234
*1268 FILLER_12_246
*1269 FILLER_12_253
*1270 FILLER_12_257
*1271 FILLER_12_264
*1272 FILLER_12_27
*1273 FILLER_12_279
*1274 FILLER_12_29
*1275 FILLER_12_294
*1276 FILLER_12_3
*1277 FILLER_12_306
*1278 FILLER_12_309
*1279 FILLER_12_320
*1280 FILLER_12_340
*1281 FILLER_12_357
*1282 FILLER_12_363
*1283 FILLER_12_365
*1284 FILLER_12_373
*1285 FILLER_12_395
*1286 FILLER_12_405
*1287 FILLER_12_41
*1288 FILLER_12_53
*1289 FILLER_12_65
*1290 FILLER_12_77
*1291 FILLER_12_83
*1292 FILLER_12_85
*1293 FILLER_12_97
*1294 FILLER_13_110
*1295 FILLER_13_113
*1296 FILLER_13_119
*1297 FILLER_13_125
*1298 FILLER_13_134
*1299 FILLER_13_143
*1300 FILLER_13_149
*1301 FILLER_13_15
*1302 FILLER_13_159
*1303 FILLER_13_167
*1304 FILLER_13_169
*1305 FILLER_13_174
*1306 FILLER_13_186
*1307 FILLER_13_201
*1308 FILLER_13_222
*1309 FILLER_13_225
*1310 FILLER_13_249
*1311 FILLER_13_262
*1312 FILLER_13_27
*1313 FILLER_13_270
*1314 FILLER_13_278
*1315 FILLER_13_281
*1316 FILLER_13_299
*1317 FILLER_13_3
*1318 FILLER_13_311
*1319 FILLER_13_322
*1320 FILLER_13_334
*1321 FILLER_13_337
*1322 FILLER_13_348
*1323 FILLER_13_370
*1324 FILLER_13_382
*1325 FILLER_13_39
*1326 FILLER_13_390
*1327 FILLER_13_393
*1328 FILLER_13_405
*1329 FILLER_13_51
*1330 FILLER_13_55
*1331 FILLER_13_57
*1332 FILLER_13_69
*1333 FILLER_13_81
*1334 FILLER_13_93
*1335 FILLER_14_105
*1336 FILLER_14_115
*1337 FILLER_14_138
*1338 FILLER_14_141
*1339 FILLER_14_15
*1340 FILLER_14_158
*1341 FILLER_14_165
*1342 FILLER_14_177
*1343 FILLER_14_186
*1344 FILLER_14_194
*1345 FILLER_14_197
*1346 FILLER_14_211
*1347 FILLER_14_220
*1348 FILLER_14_227
*1349 FILLER_14_239
*1350 FILLER_14_251
*1351 FILLER_14_253
*1352 FILLER_14_266
*1353 FILLER_14_27
*1354 FILLER_14_278
*1355 FILLER_14_29
*1356 FILLER_14_290
*1357 FILLER_14_3
*1358 FILLER_14_302
*1359 FILLER_14_309
*1360 FILLER_14_321
*1361 FILLER_14_341
*1362 FILLER_14_345
*1363 FILLER_14_362
*1364 FILLER_14_365
*1365 FILLER_14_390
*1366 FILLER_14_398
*1367 FILLER_14_405
*1368 FILLER_14_41
*1369 FILLER_14_53
*1370 FILLER_14_65
*1371 FILLER_14_77
*1372 FILLER_14_83
*1373 FILLER_14_85
*1374 FILLER_14_97
*1375 FILLER_15_102
*1376 FILLER_15_110
*1377 FILLER_15_113
*1378 FILLER_15_125
*1379 FILLER_15_139
*1380 FILLER_15_15
*1381 FILLER_15_151
*1382 FILLER_15_159
*1383 FILLER_15_167
*1384 FILLER_15_169
*1385 FILLER_15_184
*1386 FILLER_15_194
*1387 FILLER_15_206
*1388 FILLER_15_212
*1389 FILLER_15_222
*1390 FILLER_15_225
*1391 FILLER_15_234
*1392 FILLER_15_246
*1393 FILLER_15_252
*1394 FILLER_15_269
*1395 FILLER_15_27
*1396 FILLER_15_277
*1397 FILLER_15_281
*1398 FILLER_15_292
*1399 FILLER_15_3
*1400 FILLER_15_312
*1401 FILLER_15_324
*1402 FILLER_15_337
*1403 FILLER_15_349
*1404 FILLER_15_364
*1405 FILLER_15_376
*1406 FILLER_15_388
*1407 FILLER_15_39
*1408 FILLER_15_393
*1409 FILLER_15_404
*1410 FILLER_15_51
*1411 FILLER_15_55
*1412 FILLER_15_57
*1413 FILLER_15_69
*1414 FILLER_15_81
*1415 FILLER_16_106
*1416 FILLER_16_114
*1417 FILLER_16_119
*1418 FILLER_16_131
*1419 FILLER_16_139
*1420 FILLER_16_141
*1421 FILLER_16_15
*1422 FILLER_16_153
*1423 FILLER_16_159
*1424 FILLER_16_163
*1425 FILLER_16_170
*1426 FILLER_16_181
*1427 FILLER_16_185
*1428 FILLER_16_189
*1429 FILLER_16_195
*1430 FILLER_16_197
*1431 FILLER_16_205
*1432 FILLER_16_212
*1433 FILLER_16_220
*1434 FILLER_16_229
*1435 FILLER_16_237
*1436 FILLER_16_249
*1437 FILLER_16_253
*1438 FILLER_16_27
*1439 FILLER_16_270
*1440 FILLER_16_29
*1441 FILLER_16_292
*1442 FILLER_16_296
*1443 FILLER_16_3
*1444 FILLER_16_306
*1445 FILLER_16_309
*1446 FILLER_16_332
*1447 FILLER_16_359
*1448 FILLER_16_363
*1449 FILLER_16_365
*1450 FILLER_16_383
*1451 FILLER_16_387
*1452 FILLER_16_404
*1453 FILLER_16_41
*1454 FILLER_16_53
*1455 FILLER_16_65
*1456 FILLER_16_77
*1457 FILLER_16_83
*1458 FILLER_16_85
*1459 FILLER_16_97
*1460 FILLER_17_110
*1461 FILLER_17_113
*1462 FILLER_17_122
*1463 FILLER_17_130
*1464 FILLER_17_142
*1465 FILLER_17_15
*1466 FILLER_17_155
*1467 FILLER_17_167
*1468 FILLER_17_169
*1469 FILLER_17_175
*1470 FILLER_17_181
*1471 FILLER_17_192
*1472 FILLER_17_203
*1473 FILLER_17_213
*1474 FILLER_17_221
*1475 FILLER_17_225
*1476 FILLER_17_253
*1477 FILLER_17_266
*1478 FILLER_17_27
*1479 FILLER_17_274
*1480 FILLER_17_281
*1481 FILLER_17_293
*1482 FILLER_17_3
*1483 FILLER_17_305
*1484 FILLER_17_333
*1485 FILLER_17_337
*1486 FILLER_17_355
*1487 FILLER_17_367
*1488 FILLER_17_39
*1489 FILLER_17_390
*1490 FILLER_17_393
*1491 FILLER_17_404
*1492 FILLER_17_51
*1493 FILLER_17_55
*1494 FILLER_17_57
*1495 FILLER_17_69
*1496 FILLER_17_86
*1497 FILLER_17_98
*1498 FILLER_18_109
*1499 FILLER_18_119
*1500 FILLER_18_128
*1501 FILLER_18_136
*1502 FILLER_18_141
*1503 FILLER_18_15
*1504 FILLER_18_151
*1505 FILLER_18_159
*1506 FILLER_18_167
*1507 FILLER_18_178
*1508 FILLER_18_186
*1509 FILLER_18_194
*1510 FILLER_18_197
*1511 FILLER_18_203
*1512 FILLER_18_221
*1513 FILLER_18_228
*1514 FILLER_18_240
*1515 FILLER_18_253
*1516 FILLER_18_261
*1517 FILLER_18_27
*1518 FILLER_18_272
*1519 FILLER_18_284
*1520 FILLER_18_29
*1521 FILLER_18_290
*1522 FILLER_18_3
*1523 FILLER_18_302
*1524 FILLER_18_309
*1525 FILLER_18_321
*1526 FILLER_18_331
*1527 FILLER_18_348
*1528 FILLER_18_360
*1529 FILLER_18_365
*1530 FILLER_18_378
*1531 FILLER_18_386
*1532 FILLER_18_405
*1533 FILLER_18_41
*1534 FILLER_18_53
*1535 FILLER_18_65
*1536 FILLER_18_77
*1537 FILLER_18_83
*1538 FILLER_18_85
*1539 FILLER_18_89
*1540 FILLER_19_107
*1541 FILLER_19_111
*1542 FILLER_19_113
*1543 FILLER_19_123
*1544 FILLER_19_131
*1545 FILLER_19_136
*1546 FILLER_19_148
*1547 FILLER_19_15
*1548 FILLER_19_159
*1549 FILLER_19_167
*1550 FILLER_19_169
*1551 FILLER_19_180
*1552 FILLER_19_192
*1553 FILLER_19_204
*1554 FILLER_19_212
*1555 FILLER_19_222
*1556 FILLER_19_225
*1557 FILLER_19_233
*1558 FILLER_19_241
*1559 FILLER_19_246
*1560 FILLER_19_258
*1561 FILLER_19_262
*1562 FILLER_19_27
*1563 FILLER_19_270
*1564 FILLER_19_278
*1565 FILLER_19_281
*1566 FILLER_19_285
*1567 FILLER_19_293
*1568 FILLER_19_3
*1569 FILLER_19_300
*1570 FILLER_19_312
*1571 FILLER_19_324
*1572 FILLER_19_337
*1573 FILLER_19_349
*1574 FILLER_19_353
*1575 FILLER_19_371
*1576 FILLER_19_383
*1577 FILLER_19_39
*1578 FILLER_19_391
*1579 FILLER_19_393
*1580 FILLER_19_401
*1581 FILLER_19_405
*1582 FILLER_19_51
*1583 FILLER_19_55
*1584 FILLER_19_57
*1585 FILLER_19_65
*1586 FILLER_19_84
*1587 FILLER_19_95
*1588 FILLER_1_105
*1589 FILLER_1_111
*1590 FILLER_1_113
*1591 FILLER_1_125
*1592 FILLER_1_137
*1593 FILLER_1_149
*1594 FILLER_1_15
*1595 FILLER_1_161
*1596 FILLER_1_167
*1597 FILLER_1_169
*1598 FILLER_1_181
*1599 FILLER_1_193
*1600 FILLER_1_205
*1601 FILLER_1_217
*1602 FILLER_1_223
*1603 FILLER_1_225
*1604 FILLER_1_237
*1605 FILLER_1_249
*1606 FILLER_1_261
*1607 FILLER_1_27
*1608 FILLER_1_273
*1609 FILLER_1_279
*1610 FILLER_1_281
*1611 FILLER_1_293
*1612 FILLER_1_3
*1613 FILLER_1_305
*1614 FILLER_1_317
*1615 FILLER_1_329
*1616 FILLER_1_335
*1617 FILLER_1_337
*1618 FILLER_1_349
*1619 FILLER_1_361
*1620 FILLER_1_373
*1621 FILLER_1_385
*1622 FILLER_1_39
*1623 FILLER_1_391
*1624 FILLER_1_393
*1625 FILLER_1_405
*1626 FILLER_1_51
*1627 FILLER_1_55
*1628 FILLER_1_57
*1629 FILLER_1_69
*1630 FILLER_1_81
*1631 FILLER_1_93
*1632 FILLER_20_103
*1633 FILLER_20_115
*1634 FILLER_20_127
*1635 FILLER_20_139
*1636 FILLER_20_141
*1637 FILLER_20_15
*1638 FILLER_20_151
*1639 FILLER_20_172
*1640 FILLER_20_183
*1641 FILLER_20_195
*1642 FILLER_20_197
*1643 FILLER_20_209
*1644 FILLER_20_213
*1645 FILLER_20_217
*1646 FILLER_20_225
*1647 FILLER_20_237
*1648 FILLER_20_250
*1649 FILLER_20_253
*1650 FILLER_20_259
*1651 FILLER_20_27
*1652 FILLER_20_272
*1653 FILLER_20_29
*1654 FILLER_20_290
*1655 FILLER_20_3
*1656 FILLER_20_301
*1657 FILLER_20_307
*1658 FILLER_20_309
*1659 FILLER_20_318
*1660 FILLER_20_329
*1661 FILLER_20_341
*1662 FILLER_20_348
*1663 FILLER_20_355
*1664 FILLER_20_363
*1665 FILLER_20_365
*1666 FILLER_20_373
*1667 FILLER_20_393
*1668 FILLER_20_405
*1669 FILLER_20_41
*1670 FILLER_20_53
*1671 FILLER_20_65
*1672 FILLER_20_77
*1673 FILLER_20_83
*1674 FILLER_20_85
*1675 FILLER_20_93
*1676 FILLER_21_106
*1677 FILLER_21_113
*1678 FILLER_21_122
*1679 FILLER_21_140
*1680 FILLER_21_15
*1681 FILLER_21_161
*1682 FILLER_21_167
*1683 FILLER_21_169
*1684 FILLER_21_179
*1685 FILLER_21_185
*1686 FILLER_21_194
*1687 FILLER_21_206
*1688 FILLER_21_218
*1689 FILLER_21_225
*1690 FILLER_21_233
*1691 FILLER_21_238
*1692 FILLER_21_251
*1693 FILLER_21_263
*1694 FILLER_21_267
*1695 FILLER_21_27
*1696 FILLER_21_272
*1697 FILLER_21_281
*1698 FILLER_21_293
*1699 FILLER_21_3
*1700 FILLER_21_304
*1701 FILLER_21_317
*1702 FILLER_21_321
*1703 FILLER_21_334
*1704 FILLER_21_337
*1705 FILLER_21_345
*1706 FILLER_21_354
*1707 FILLER_21_366
*1708 FILLER_21_378
*1709 FILLER_21_39
*1710 FILLER_21_390
*1711 FILLER_21_393
*1712 FILLER_21_401
*1713 FILLER_21_405
*1714 FILLER_21_51
*1715 FILLER_21_55
*1716 FILLER_21_57
*1717 FILLER_21_69
*1718 FILLER_21_89
*1719 FILLER_21_97
*1720 FILLER_22_109
*1721 FILLER_22_120
*1722 FILLER_22_124
*1723 FILLER_22_128
*1724 FILLER_22_138
*1725 FILLER_22_141
*1726 FILLER_22_149
*1727 FILLER_22_15
*1728 FILLER_22_157
*1729 FILLER_22_169
*1730 FILLER_22_184
*1731 FILLER_22_190
*1732 FILLER_22_194
*1733 FILLER_22_197
*1734 FILLER_22_210
*1735 FILLER_22_218
*1736 FILLER_22_228
*1737 FILLER_22_240
*1738 FILLER_22_249
*1739 FILLER_22_253
*1740 FILLER_22_257
*1741 FILLER_22_263
*1742 FILLER_22_27
*1743 FILLER_22_275
*1744 FILLER_22_281
*1745 FILLER_22_285
*1746 FILLER_22_29
*1747 FILLER_22_297
*1748 FILLER_22_3
*1749 FILLER_22_305
*1750 FILLER_22_309
*1751 FILLER_22_321
*1752 FILLER_22_333
*1753 FILLER_22_341
*1754 FILLER_22_349
*1755 FILLER_22_361
*1756 FILLER_22_365
*1757 FILLER_22_381
*1758 FILLER_22_405
*1759 FILLER_22_41
*1760 FILLER_22_53
*1761 FILLER_22_65
*1762 FILLER_22_77
*1763 FILLER_22_83
*1764 FILLER_22_85
*1765 FILLER_22_97
*1766 FILLER_23_100
*1767 FILLER_23_113
*1768 FILLER_23_117
*1769 FILLER_23_129
*1770 FILLER_23_140
*1771 FILLER_23_15
*1772 FILLER_23_152
*1773 FILLER_23_164
*1774 FILLER_23_169
*1775 FILLER_23_179
*1776 FILLER_23_189
*1777 FILLER_23_199
*1778 FILLER_23_203
*1779 FILLER_23_210
*1780 FILLER_23_222
*1781 FILLER_23_225
*1782 FILLER_23_235
*1783 FILLER_23_247
*1784 FILLER_23_254
*1785 FILLER_23_262
*1786 FILLER_23_27
*1787 FILLER_23_272
*1788 FILLER_23_281
*1789 FILLER_23_290
*1790 FILLER_23_3
*1791 FILLER_23_300
*1792 FILLER_23_312
*1793 FILLER_23_334
*1794 FILLER_23_337
*1795 FILLER_23_357
*1796 FILLER_23_363
*1797 FILLER_23_381
*1798 FILLER_23_389
*1799 FILLER_23_39
*1800 FILLER_23_393
*1801 FILLER_23_405
*1802 FILLER_23_51
*1803 FILLER_23_55
*1804 FILLER_23_57
*1805 FILLER_23_69
*1806 FILLER_23_75
*1807 FILLER_23_87
*1808 FILLER_24_107
*1809 FILLER_24_120
*1810 FILLER_24_126
*1811 FILLER_24_138
*1812 FILLER_24_141
*1813 FILLER_24_15
*1814 FILLER_24_153
*1815 FILLER_24_159
*1816 FILLER_24_173
*1817 FILLER_24_177
*1818 FILLER_24_191
*1819 FILLER_24_195
*1820 FILLER_24_197
*1821 FILLER_24_212
*1822 FILLER_24_228
*1823 FILLER_24_236
*1824 FILLER_24_243
*1825 FILLER_24_251
*1826 FILLER_24_253
*1827 FILLER_24_257
*1828 FILLER_24_261
*1829 FILLER_24_27
*1830 FILLER_24_273
*1831 FILLER_24_281
*1832 FILLER_24_285
*1833 FILLER_24_29
*1834 FILLER_24_297
*1835 FILLER_24_3
*1836 FILLER_24_306
*1837 FILLER_24_309
*1838 FILLER_24_321
*1839 FILLER_24_334
*1840 FILLER_24_346
*1841 FILLER_24_358
*1842 FILLER_24_365
*1843 FILLER_24_376
*1844 FILLER_24_388
*1845 FILLER_24_403
*1846 FILLER_24_41
*1847 FILLER_24_53
*1848 FILLER_24_74