*SPEF "ieee 1481-1999"
*DESIGN "wrapped_6502"
*DATE "11:11:11 Fri 11 11, 1111"
*VENDOR "OpenRCX"
*PROGRAM "Parallel Extraction"
*VERSION "1.0"
*DESIGN_FLOW "NAME_SCOPE LOCAL" "PIN_CAP NONE"
*DIVIDER /
*DELIMITER :
*BUS_DELIMITER []
*T_UNIT 1 NS
*C_UNIT 1 PF
*R_UNIT 1 OHM
*L_UNIT 1 HENRY

*NAME_MAP
*1 clk
*2 io_in[0]
*3 io_in[1]
*4 io_in[2]
*5 io_in[3]
*6 io_in[4]
*7 io_in[5]
*8 io_in[6]
*9 io_in[7]
*10 io_in[8]
*11 io_in[9]
*12 io_oeb
*13 io_out[0]
*14 io_out[10]
*15 io_out[11]
*16 io_out[12]
*17 io_out[13]
*18 io_out[14]
*19 io_out[15]
*20 io_out[16]
*21 io_out[17]
*22 io_out[18]
*23 io_out[19]
*24 io_out[1]
*25 io_out[20]
*26 io_out[21]
*27 io_out[22]
*28 io_out[23]
*29 io_out[24]
*30 io_out[25]
*31 io_out[26]
*32 io_out[2]
*33 io_out[3]
*34 io_out[4]
*35 io_out[5]
*36 io_out[6]
*37 io_out[7]
*38 net12
*39 net13
*40 rst
*43 MOS6502\.ABH\[0\]
*44 MOS6502\.ABH\[1\]
*45 MOS6502\.ABH\[2\]
*46 MOS6502\.ABH\[3\]
*47 MOS6502\.ABH\[4\]
*48 MOS6502\.ABH\[5\]
*49 MOS6502\.ABH\[6\]
*50 MOS6502\.ABH\[7\]
*51 MOS6502\.ABL\[0\]
*52 MOS6502\.ABL\[1\]
*53 MOS6502\.ABL\[2\]
*54 MOS6502\.ABL\[3\]
*55 MOS6502\.ABL\[4\]
*56 MOS6502\.ABL\[5\]
*57 MOS6502\.ABL\[6\]
*58 MOS6502\.ABL\[7\]
*59 MOS6502\.ADD\[0\]
*60 MOS6502\.ADD\[1\]
*61 MOS6502\.ADD\[2\]
*62 MOS6502\.ADD\[3\]
*63 MOS6502\.ADD\[4\]
*64 MOS6502\.ADD\[5\]
*65 MOS6502\.ADD\[6\]
*66 MOS6502\.ADD\[7\]
*67 MOS6502\.AI\[7\]
*68 MOS6502\.ALU\.AI7
*69 MOS6502\.ALU\.BI7
*70 MOS6502\.ALU\.CO
*71 MOS6502\.ALU\.HC
*72 MOS6502\.ALU\.temp\[0\]
*73 MOS6502\.ALU\.temp\[1\]
*74 MOS6502\.ALU\.temp\[2\]
*75 MOS6502\.ALU\.temp\[3\]
*76 MOS6502\.ALU\.temp\[4\]
*77 MOS6502\.ALU\.temp\[5\]
*78 MOS6502\.ALU\.temp\[6\]
*79 MOS6502\.ALU\.temp\[7\]
*80 MOS6502\.ALU\.temp_BI\[7\]
*81 MOS6502\.ALU\.temp_HC
*82 MOS6502\.AXYS\[0\]\[0\]
*83 MOS6502\.AXYS\[0\]\[1\]
*84 MOS6502\.AXYS\[0\]\[2\]
*85 MOS6502\.AXYS\[0\]\[3\]
*86 MOS6502\.AXYS\[0\]\[4\]
*87 MOS6502\.AXYS\[0\]\[5\]
*88 MOS6502\.AXYS\[0\]\[6\]
*89 MOS6502\.AXYS\[0\]\[7\]
*90 MOS6502\.AXYS\[1\]\[0\]
*91 MOS6502\.AXYS\[1\]\[1\]
*92 MOS6502\.AXYS\[1\]\[2\]
*93 MOS6502\.AXYS\[1\]\[3\]
*94 MOS6502\.AXYS\[1\]\[4\]
*95 MOS6502\.AXYS\[1\]\[5\]
*96 MOS6502\.AXYS\[1\]\[6\]
*97 MOS6502\.AXYS\[1\]\[7\]
*98 MOS6502\.AXYS\[2\]\[0\]
*99 MOS6502\.AXYS\[2\]\[1\]
*100 MOS6502\.AXYS\[2\]\[2\]
*101 MOS6502\.AXYS\[2\]\[3\]
*102 MOS6502\.AXYS\[2\]\[4\]
*103 MOS6502\.AXYS\[2\]\[5\]
*104 MOS6502\.AXYS\[2\]\[6\]
*105 MOS6502\.AXYS\[2\]\[7\]
*106 MOS6502\.AXYS\[3\]\[0\]
*107 MOS6502\.AXYS\[3\]\[1\]
*108 MOS6502\.AXYS\[3\]\[2\]
*109 MOS6502\.AXYS\[3\]\[3\]
*110 MOS6502\.AXYS\[3\]\[4\]
*111 MOS6502\.AXYS\[3\]\[5\]
*112 MOS6502\.AXYS\[3\]\[6\]
*113 MOS6502\.AXYS\[3\]\[7\]
*114 MOS6502\.C
*115 MOS6502\.D
*116 MOS6502\.I
*117 MOS6502\.IRHOLD\[0\]
*118 MOS6502\.IRHOLD\[1\]
*119 MOS6502\.IRHOLD\[2\]
*120 MOS6502\.IRHOLD\[3\]
*121 MOS6502\.IRHOLD\[4\]
*122 MOS6502\.IRHOLD\[5\]
*123 MOS6502\.IRHOLD\[6\]
*124 MOS6502\.IRHOLD\[7\]
*125 MOS6502\.IRHOLD_valid
*126 MOS6502\.IR\[5\]
*127 MOS6502\.IR\[6\]
*128 MOS6502\.IR\[7\]
*129 MOS6502\.N
*130 MOS6502\.NMI_1
*131 MOS6502\.NMI_edge
*132 MOS6502\.PC\[0\]
*133 MOS6502\.PC\[10\]
*134 MOS6502\.PC\[11\]
*135 MOS6502\.PC\[12\]
*136 MOS6502\.PC\[13\]
*137 MOS6502\.PC\[14\]
*138 MOS6502\.PC\[15\]
*139 MOS6502\.PC\[1\]
*140 MOS6502\.PC\[2\]
*141 MOS6502\.PC\[3\]
*142 MOS6502\.PC\[4\]
*143 MOS6502\.PC\[5\]
*144 MOS6502\.PC\[6\]
*145 MOS6502\.PC\[7\]
*146 MOS6502\.PC\[8\]
*147 MOS6502\.PC\[9\]
*148 MOS6502\.V
*149 MOS6502\.Z
*150 MOS6502\.adc_bcd
*151 MOS6502\.adc_sbc
*152 MOS6502\.adj_bcd
*153 MOS6502\.backwards
*154 MOS6502\.bit_ins
*155 MOS6502\.clc
*156 MOS6502\.cld
*157 MOS6502\.cli
*158 MOS6502\.clv
*159 MOS6502\.compare
*160 MOS6502\.cond_code\[0\]
*161 MOS6502\.cond_code\[1\]
*162 MOS6502\.cond_code\[2\]
*163 MOS6502\.dst_reg\[0\]
*164 MOS6502\.dst_reg\[1\]
*165 MOS6502\.inc
*166 MOS6502\.index_y
*167 MOS6502\.load_only
*168 MOS6502\.load_reg
*169 MOS6502\.op\[0\]
*170 MOS6502\.op\[1\]
*171 MOS6502\.op\[2\]
*172 MOS6502\.op\[3\]
*173 MOS6502\.php
*174 MOS6502\.plp
*175 MOS6502\.res
*176 MOS6502\.rotate
*177 MOS6502\.sec
*178 MOS6502\.sed
*179 MOS6502\.sei
*180 MOS6502\.shift
*181 MOS6502\.shift_right
*182 MOS6502\.src_reg\[0\]
*183 MOS6502\.src_reg\[1\]
*184 MOS6502\.state\[0\]
*185 MOS6502\.state\[1\]
*186 MOS6502\.state\[2\]
*187 MOS6502\.state\[3\]
*188 MOS6502\.state\[4\]
*189 MOS6502\.state\[5\]
*190 MOS6502\.store
*191 MOS6502\.write_back
*192 _0000_
*193 _0001_
*194 _0002_
*195 _0003_
*196 _0004_
*197 _0005_
*198 _0006_
*199 _0007_
*200 _0008_
*201 _0009_
*202 _0010_
*203 _0011_
*204 _0012_
*205 _0013_
*206 _0014_
*207 _0015_
*208 _0016_
*209 _0017_
*210 _0018_
*211 _0019_
*212 _0020_
*213 _0021_
*214 _0022_
*215 _0023_
*216 _0024_
*217 _0025_
*218 _0026_
*219 _0027_
*220 _0028_
*221 _0029_
*222 _0030_
*223 _0031_
*224 _0032_
*225 _0033_
*226 _0034_
*227 _0035_
*228 _0036_
*229 _0037_
*230 _0038_
*231 _0039_
*232 _0040_
*233 _0041_
*234 _0042_
*235 _0043_
*236 _0044_
*237 _0045_
*238 _0046_
*239 _0047_
*240 _0048_
*241 _0049_
*242 _0050_
*243 _0051_
*244 _0052_
*245 _0053_
*246 _0054_
*247 _0055_
*248 _0056_
*249 _0057_
*250 _0058_
*251 _0059_
*252 _0060_
*253 _0061_
*254 _0062_
*255 _0063_
*256 _0064_
*257 _0065_
*258 _0066_
*259 _0067_
*260 _0068_
*261 _0069_
*262 _0070_
*263 _0071_
*264 _0072_
*265 _0073_
*266 _0074_
*267 _0075_
*268 _0076_
*269 _0077_
*270 _0078_
*271 _0079_
*272 _0080_
*273 _0081_
*274 _0082_
*275 _0083_
*276 _0084_
*277 _0085_
*278 _0086_
*279 _0087_
*280 _0088_
*281 _0089_
*282 _0090_
*283 _0091_
*284 _0092_
*285 _0093_
*286 _0094_
*287 _0095_
*288 _0096_
*289 _0097_
*290 _0098_
*291 _0099_
*292 _0100_
*293 _0101_
*294 _0102_
*295 _0103_
*296 _0104_
*297 _0105_
*298 _0106_
*299 _0107_
*300 _0108_
*301 _0109_
*302 _0110_
*303 _0111_
*304 _0112_
*305 _0113_
*306 _0114_
*307 _0115_
*308 _0116_
*309 _0117_
*310 _0118_
*311 _0119_
*312 _0120_
*313 _0121_
*314 _0122_
*315 _0123_
*316 _0124_
*317 _0125_
*318 _0126_
*319 _0127_
*320 _0128_
*321 _0129_
*322 _0130_
*323 _0131_
*324 _0132_
*325 _0133_
*326 _0134_
*327 _0135_
*328 _0136_
*329 _0137_
*330 _0138_
*331 _0139_
*332 _0140_
*333 _0141_
*334 _0142_
*335 _0143_
*336 _0144_
*337 _0145_
*338 _0146_
*339 _0147_
*340 _0148_
*341 _0149_
*342 _0150_
*343 _0151_
*344 _0152_
*345 _0153_
*346 _0154_
*347 _0155_
*348 _0156_
*349 _0157_
*350 _0158_
*351 _0159_
*352 _0160_
*353 _0161_
*354 _0162_
*355 _0163_
*356 _0164_
*357 _0165_
*358 _0166_
*359 _0167_
*360 _0168_
*361 _0169_
*362 _0170_
*363 _0171_
*364 _0172_
*365 _0173_
*366 _0174_
*367 _0175_
*368 _0176_
*369 _0177_
*370 _0178_
*371 _0179_
*372 _0180_
*373 _0181_
*374 _0182_
*375 _0183_
*376 _0184_
*377 _0185_
*378 _0186_
*379 _0187_
*380 _0188_
*381 _0189_
*382 _0190_
*383 _0191_
*384 _0192_
*385 _0193_
*386 _0194_
*387 _0195_
*388 _0196_
*389 _0197_
*390 _0198_
*391 _0199_
*392 _0200_
*393 _0201_
*394 _0202_
*395 _0203_
*396 _0204_
*397 _0205_
*398 _0206_
*399 _0207_
*400 _0208_
*401 _0209_
*402 _0210_
*403 _0211_
*404 _0212_
*405 _0213_
*406 _0214_
*407 _0215_
*408 _0216_
*409 _0217_
*410 _0218_
*411 _0219_
*412 _0220_
*413 _0221_
*414 _0222_
*415 _0223_
*416 _0224_
*417 _0225_
*418 _0226_
*419 _0227_
*420 _0228_
*421 _0229_
*422 _0230_
*423 _0231_
*424 _0232_
*425 _0233_
*426 _0234_
*427 _0235_
*428 _0236_
*429 _0237_
*430 _0238_
*431 _0239_
*432 _0240_
*433 _0241_
*434 _0242_
*435 _0243_
*436 _0244_
*437 _0245_
*438 _0246_
*439 _0247_
*440 _0248_
*441 _0249_
*442 _0250_
*443 _0251_
*444 _0252_
*445 _0253_
*446 _0254_
*447 _0255_
*448 _0256_
*449 _0257_
*450 _0258_
*451 _0259_
*452 _0260_
*453 _0261_
*454 _0262_
*455 _0263_
*456 _0264_
*457 _0265_
*458 _0266_
*459 _0267_
*460 _0268_
*461 _0269_
*462 _0270_
*463 _0271_
*464 _0272_
*465 _0273_
*466 _0274_
*467 _0275_
*468 _0276_
*469 _0277_
*470 _0278_
*471 _0279_
*472 _0280_
*473 _0281_
*474 _0282_
*475 _0283_
*476 _0284_
*477 _0285_
*478 _0286_
*479 _0287_
*480 _0288_
*481 _0289_
*482 _0290_
*483 _0291_
*484 _0292_
*485 _0293_
*486 _0294_
*487 _0295_
*488 _0296_
*489 _0297_
*490 _0298_
*491 _0299_
*492 _0300_
*493 _0301_
*494 _0302_
*495 _0303_
*496 _0304_
*497 _0305_
*498 _0306_
*499 _0307_
*500 _0308_
*501 _0309_
*502 _0310_
*503 _0311_
*504 _0312_
*505 _0313_
*506 _0314_
*507 _0315_
*508 _0316_
*509 _0317_
*510 _0318_
*511 _0319_
*512 _0320_
*513 _0321_
*514 _0322_
*515 _0323_
*516 _0324_
*517 _0325_
*518 _0326_
*519 _0327_
*520 _0328_
*521 _0329_
*522 _0330_
*523 _0331_
*524 _0332_
*525 _0333_
*526 _0334_
*527 _0335_
*528 _0336_
*529 _0337_
*530 _0338_
*531 _0339_
*532 _0340_
*533 _0341_
*534 _0342_
*535 _0343_
*536 _0344_
*537 _0345_
*538 _0346_
*539 _0347_
*540 _0348_
*541 _0349_
*542 _0350_
*543 _0351_
*544 _0352_
*545 _0353_
*546 _0354_
*547 _0355_
*548 _0356_
*549 _0357_
*550 _0358_
*551 _0359_
*552 _0360_
*553 _0361_
*554 _0362_
*555 _0363_
*556 _0364_
*557 _0365_
*558 _0366_
*559 _0367_
*560 _0368_
*561 _0369_
*562 _0370_
*563 _0371_
*564 _0372_
*565 _0373_
*566 _0374_
*567 _0375_
*568 _0376_
*569 _0377_
*570 _0378_
*571 _0379_
*572 _0380_
*573 _0381_
*574 _0382_
*575 _0383_
*576 _0384_
*577 _0385_
*578 _0386_
*579 _0387_
*580 _0388_
*581 _0389_
*582 _0390_
*583 _0391_
*584 _0392_
*585 _0393_
*586 _0394_
*587 _0395_
*588 _0396_
*589 _0397_
*590 _0398_
*591 _0399_
*592 _0400_
*593 _0401_
*594 _0402_
*595 _0403_
*596 _0404_
*597 _0405_
*598 _0406_
*599 _0407_
*600 _0408_
*601 _0409_
*602 _0410_
*603 _0411_
*604 _0412_
*605 _0413_
*606 _0414_
*607 _0415_
*608 _0416_
*609 _0417_
*610 _0418_
*611 _0419_
*612 _0420_
*613 _0421_
*614 _0422_
*615 _0423_
*616 _0424_
*617 _0425_
*618 _0426_
*619 _0427_
*620 _0428_
*621 _0429_
*622 _0430_
*623 _0431_
*624 _0432_
*625 _0433_
*626 _0434_
*627 _0435_
*628 _0436_
*629 _0437_
*630 _0438_
*631 _0439_
*632 _0440_
*633 _0441_
*634 _0442_
*635 _0443_
*636 _0444_
*637 _0445_
*638 _0446_
*639 _0447_
*640 _0448_
*641 _0449_
*642 _0450_
*643 _0451_
*644 _0452_
*645 _0453_
*646 _0454_
*647 _0455_
*648 _0456_
*649 _0457_
*650 _0458_
*651 _0459_
*652 _0460_
*653 _0461_
*654 _0462_
*655 _0463_
*656 _0464_
*657 _0465_
*658 _0466_
*659 _0467_
*660 _0468_
*661 _0469_
*662 _0470_
*663 _0471_
*664 _0472_
*665 _0473_
*666 _0474_
*667 _0475_
*668 _0476_
*669 _0477_
*670 _0478_
*671 _0479_
*672 _0480_
*673 _0481_
*674 _0482_
*675 _0483_
*676 _0484_
*677 _0485_
*678 _0486_
*679 _0487_
*680 _0488_
*681 _0489_
*682 _0490_
*683 _0491_
*684 _0492_
*685 _0493_
*686 _0494_
*687 _0495_
*688 _0496_
*689 _0497_
*690 _0498_
*691 _0499_
*692 _0500_
*693 _0501_
*694 _0502_
*695 _0503_
*696 _0504_
*697 _0505_
*698 _0506_
*699 _0507_
*700 _0508_
*701 _0509_
*702 _0510_
*703 _0511_
*704 _0512_
*705 _0513_
*706 _0514_
*707 _0515_
*708 _0516_
*709 _0517_
*710 _0518_
*711 _0519_
*712 _0520_
*713 _0521_
*714 _0522_
*715 _0523_
*716 _0524_
*717 _0525_
*718 _0526_
*719 _0527_
*720 _0528_
*721 _0529_
*722 _0530_
*723 _0531_
*724 _0532_
*725 _0533_
*726 _0534_
*727 _0535_
*728 _0536_
*729 _0537_
*730 _0538_
*731 _0539_
*732 _0540_
*733 _0541_
*734 _0542_
*735 _0543_
*736 _0544_
*737 _0545_
*738 _0546_
*739 _0547_
*740 _0548_
*741 _0549_
*742 _0550_
*743 _0551_
*744 _0552_
*745 _0553_
*746 _0554_
*747 _0555_
*748 _0556_
*749 _0557_
*750 _0558_
*751 _0559_
*752 _0560_
*753 _0561_
*754 _0562_
*755 _0563_
*756 _0564_
*757 _0565_
*758 _0566_
*759 _0567_
*760 _0568_
*761 _0569_
*762 _0570_
*763 _0571_
*764 _0572_
*765 _0573_
*766 _0574_
*767 _0575_
*768 _0576_
*769 _0577_
*770 _0578_
*771 _0579_
*772 _0580_
*773 _0581_
*774 _0582_
*775 _0583_
*776 _0584_
*777 _0585_
*778 _0586_
*779 _0587_
*780 _0588_
*781 _0589_
*782 _0590_
*783 _0591_
*784 _0592_
*785 _0593_
*786 _0594_
*787 _0595_
*788 _0596_
*789 _0597_
*790 _0598_
*791 _0599_
*792 _0600_
*793 _0601_
*794 _0602_
*795 _0603_
*796 _0604_
*797 _0605_
*798 _0606_
*799 _0607_
*800 _0608_
*801 _0609_
*802 _0610_
*803 _0611_
*804 _0612_
*805 _0613_
*806 _0614_
*807 _0615_
*808 _0616_
*809 _0617_
*810 _0618_
*811 _0619_
*812 _0620_
*813 _0621_
*814 _0622_
*815 _0623_
*816 _0624_
*817 _0625_
*818 _0626_
*819 _0627_
*820 _0628_
*821 _0629_
*822 _0630_
*823 _0631_
*824 _0632_
*825 _0633_
*826 _0634_
*827 _0635_
*828 _0636_
*829 _0637_
*830 _0638_
*831 _0639_
*832 _0640_
*833 _0641_
*834 _0642_
*835 _0643_
*836 _0644_
*837 _0645_
*838 _0646_
*839 _0647_
*840 _0648_
*841 _0649_
*842 _0650_
*843 _0651_
*844 _0652_
*845 _0653_
*846 _0654_
*847 _0655_
*848 _0656_
*849 _0657_
*850 _0658_
*851 _0659_
*852 _0660_
*853 _0661_
*854 _0662_
*855 _0663_
*856 _0664_
*857 _0665_
*858 _0666_
*859 _0667_
*860 _0668_
*861 _0669_
*862 _0670_
*863 _0671_
*864 _0672_
*865 _0673_
*866 _0674_
*867 _0675_
*868 _0676_
*869 _0677_
*870 _0678_
*871 _0679_
*872 _0680_
*873 _0681_
*874 _0682_
*875 _0683_
*876 _0684_
*877 _0685_
*878 _0686_
*879 _0687_
*880 _0688_
*881 _0689_
*882 _0690_
*883 _0691_
*884 _0692_
*885 _0693_
*886 _0694_
*887 _0695_
*888 _0696_
*889 _0697_
*890 _0698_
*891 _0699_
*892 _0700_
*893 _0701_
*894 _0702_
*895 _0703_
*896 _0704_
*897 _0705_
*898 _0706_
*899 _0707_
*900 _0708_
*901 _0709_
*902 _0710_
*903 _0711_
*904 _0712_
*905 _0713_
*906 _0714_
*907 _0715_
*908 _0716_
*909 _0717_
*910 _0718_
*911 _0719_
*912 _0720_
*913 _0721_
*914 _0722_
*915 _0723_
*916 _0724_
*917 _0725_
*918 _0726_
*919 _0727_
*920 _0728_
*921 _0729_
*922 _0730_
*923 _0731_
*924 _0732_
*925 _0733_
*926 _0734_
*927 _0735_
*928 _0736_
*929 _0737_
*930 _0738_
*931 _0739_
*932 _0740_
*933 _0741_
*934 _0742_
*935 _0743_
*936 _0744_
*937 _0745_
*938 _0746_
*939 _0747_
*940 _0748_
*941 _0749_
*942 _0750_
*943 _0751_
*944 _0752_
*945 _0753_
*946 _0754_
*947 _0755_
*948 _0756_
*949 _0757_
*950 _0758_
*951 _0759_
*952 _0760_
*953 _0761_
*954 _0762_
*955 _0763_
*956 _0764_
*957 _0765_
*958 _0766_
*959 _0767_
*960 _0768_
*961 _0769_
*962 _0770_
*963 _0771_
*964 _0772_
*965 _0773_
*966 _0774_
*967 _0775_
*968 _0776_
*969 _0777_
*970 _0778_
*971 _0779_
*972 _0780_
*973 _0781_
*974 _0782_
*975 _0783_
*976 _0784_
*977 _0785_
*978 _0786_
*979 _0787_
*980 _0788_
*981 _0789_
*982 _0790_
*983 _0791_
*984 _0792_
*985 _0793_
*986 _0794_
*987 _0795_
*988 _0796_
*989 _0797_
*990 _0798_
*991 _0799_
*992 _0800_
*993 _0801_
*994 _0802_
*995 _0803_
*996 _0804_
*997 _0805_
*998 _0806_
*999 _0807_
*1000 _0808_
*1001 _0809_
*1002 _0810_
*1003 _0811_
*1004 _0812_
*1005 _0813_
*1006 _0814_
*1007 _0815_
*1008 _0816_
*1009 _0817_
*1010 _0818_
*1011 _0819_
*1012 _0820_
*1013 _0821_
*1014 _0822_
*1015 _0823_
*1016 _0824_
*1017 _0825_
*1018 _0826_
*1019 _0827_
*1020 _0828_
*1021 _0829_
*1022 _0830_
*1023 _0831_
*1024 _0832_
*1025 _0833_
*1026 _0834_
*1027 _0835_
*1028 _0836_
*1029 _0837_
*1030 _0838_
*1031 _0839_
*1032 _0840_
*1033 _0841_
*1034 _0842_
*1035 _0843_
*1036 _0844_
*1037 _0845_
*1038 _0846_
*1039 _0847_
*1040 _0848_
*1041 _0849_
*1042 _0850_
*1043 _0851_
*1044 _0852_
*1045 _0853_
*1046 _0854_
*1047 _0855_
*1048 _0856_
*1049 _0857_
*1050 _0858_
*1051 _0859_
*1052 _0860_
*1053 _0861_
*1054 _0862_
*1055 _0863_
*1056 _0864_
*1057 _0865_
*1058 _0866_
*1059 _0867_
*1060 _0868_
*1061 _0869_
*1062 _0870_
*1063 _0871_
*1064 _0872_
*1065 _0873_
*1066 _0874_
*1067 _0875_
*1068 _0876_
*1069 _0877_
*1070 _0878_
*1071 _0879_
*1072 _0880_
*1073 _0881_
*1074 _0882_
*1075 _0883_
*1076 _0884_
*1077 _0885_
*1078 _0886_
*1079 _0887_
*1080 _0888_
*1081 _0889_
*1082 _0890_
*1083 _0891_
*1084 _0892_
*1085 _0893_
*1086 _0894_
*1087 _0895_
*1088 _0896_
*1089 _0897_
*1090 _0898_
*1091 _0899_
*1092 _0900_
*1093 _0901_
*1094 _0902_
*1095 _0903_
*1096 _0904_
*1097 _0905_
*1098 _0906_
*1099 _0907_
*1100 _0908_
*1101 _0909_
*1102 _0910_
*1103 _0911_
*1104 _0912_
*1105 _0913_
*1106 _0914_
*1107 _0915_
*1108 _0916_
*1109 _0917_
*1110 _0918_
*1111 _0919_
*1112 _0920_
*1113 _0921_
*1114 _0922_
*1115 _0923_
*1116 _0924_
*1117 _0925_
*1118 _0926_
*1119 _0927_
*1120 _0928_
*1121 _0929_
*1122 _0930_
*1123 _0931_
*1124 _0932_
*1125 _0933_
*1126 _0934_
*1127 _0935_
*1128 _0936_
*1129 _0937_
*1130 _0938_
*1131 _0939_
*1132 _0940_
*1133 _0941_
*1134 _0942_
*1135 _0943_
*1136 _0944_
*1137 _0945_
*1138 _0946_
*1139 _0947_
*1140 _0948_
*1141 _0949_
*1142 _0950_
*1143 _0951_
*1144 _0952_
*1145 _0953_
*1146 _0954_
*1147 _0955_
*1148 _0956_
*1149 _0957_
*1150 _0958_
*1151 _0959_
*1152 _0960_
*1153 _0961_
*1154 _0962_
*1155 _0963_
*1156 _0964_
*1157 _0965_
*1158 _0966_
*1159 _0967_
*1160 _0968_
*1161 _0969_
*1162 _0970_
*1163 _0971_
*1164 clknet_0_clk
*1165 clknet_4_0_0_clk
*1166 clknet_4_10_0_clk
*1167 clknet_4_11_0_clk
*1168 clknet_4_12_0_clk
*1169 clknet_4_13_0_clk
*1170 clknet_4_14_0_clk
*1171 clknet_4_15_0_clk
*1172 clknet_4_1_0_clk
*1173 clknet_4_2_0_clk
*1174 clknet_4_3_0_clk
*1175 clknet_4_4_0_clk
*1176 clknet_4_5_0_clk
*1177 clknet_4_6_0_clk
*1178 clknet_4_7_0_clk
*1179 clknet_4_8_0_clk
*1180 clknet_4_9_0_clk
*1181 net1
*1182 net10
*1183 net11
*1184 net2
*1185 net3
*1186 net4
*1187 net5
*1188 net6
*1189 net7
*1190 net8
*1191 net9
*1192 ANTENNA__0974__A
*1193 ANTENNA__0975__A0
*1194 ANTENNA__0978__A0
*1195 ANTENNA__0981__A0
*1196 ANTENNA__1001__B
*1197 ANTENNA__1007__B
*1198 ANTENNA__1016__B
*1199 ANTENNA__1032__A
*1200 ANTENNA__1033__B1
*1201 ANTENNA__1049__B
*1202 ANTENNA__1057__A
*1203 ANTENNA__1071__B2
*1204 ANTENNA__1074__A
*1205 ANTENNA__1084__C
*1206 ANTENNA__1093__A1
*1207 ANTENNA__1097__B2
*1208 ANTENNA__1097__C1
*1209 ANTENNA__1106__D
*1210 ANTENNA__1114__A2
*1211 ANTENNA__1117__A2
*1212 ANTENNA__1126__B
*1213 ANTENNA__1127__B2
*1214 ANTENNA__1128__A1
*1215 ANTENNA__1139__B
*1216 ANTENNA__1140__A1
*1217 ANTENNA__1140__B2
*1218 ANTENNA__1141__A1
*1219 ANTENNA__1148__A1
*1220 ANTENNA__1149__A1
*1221 ANTENNA__1150__A2
*1222 ANTENNA__1151__B2
*1223 ANTENNA__1163__A1
*1224 ANTENNA__1164__A1
*1225 ANTENNA__1165__A2
*1226 ANTENNA__1167__B2
*1227 ANTENNA__1177__A
*1228 ANTENNA__1179__B2
*1229 ANTENNA__1186__A1
*1230 ANTENNA__1187__A1
*1231 ANTENNA__1196__A1
*1232 ANTENNA__1197__A1
*1233 ANTENNA__1200__A1
*1234 ANTENNA__1201__A
*1235 ANTENNA__1210__B1
*1236 ANTENNA__1211__B1
*1237 ANTENNA__1219__B2
*1238 ANTENNA__1231__A1
*1239 ANTENNA__1232__A1
*1240 ANTENNA__1233__A2
*1241 ANTENNA__1238__B2
*1242 ANTENNA__1247__A1
*1243 ANTENNA__1257__A1
*1244 ANTENNA__1260__A1
*1245 ANTENNA__1265__B
*1246 ANTENNA__1266__A1
*1247 ANTENNA__1267__A1
*1248 ANTENNA__1269__B2
*1249 ANTENNA__1276__A
*1250 ANTENNA__1284__B2
*1251 ANTENNA__1291__A1
*1252 ANTENNA__1310__A
*1253 ANTENNA__1318__A
*1254 ANTENNA__1318__B
*1255 ANTENNA__1319__A1
*1256 ANTENNA__1319__A2
*1257 ANTENNA__1322__A
*1258 ANTENNA__1322__B
*1259 ANTENNA__1323__A1
*1260 ANTENNA__1328__B
*1261 ANTENNA__1334__B
*1262 ANTENNA__1335__B2
*1263 ANTENNA__1341__B1
*1264 ANTENNA__1342__A1
*1265 ANTENNA__1346__A1
*1266 ANTENNA__1347__A1
*1267 ANTENNA__1347__C1
*1268 ANTENNA__1351__A1
*1269 ANTENNA__1351__C1
*1270 ANTENNA__1355__A1
*1271 ANTENNA__1355__C1
*1272 ANTENNA__1359__A1
*1273 ANTENNA__1359__C1
*1274 ANTENNA__1363__A
*1275 ANTENNA__1364__A1
*1276 ANTENNA__1370__A
*1277 ANTENNA__1370__B
*1278 ANTENNA__1373__A1
*1279 ANTENNA__1374__A1
*1280 ANTENNA__1376__A1
*1281 ANTENNA__1377__A1
*1282 ANTENNA__1381__A1
*1283 ANTENNA__1382__A1
*1284 ANTENNA__1384__A1
*1285 ANTENNA__1385__A1
*1286 ANTENNA__1385__B2
*1287 ANTENNA__1389__A1
*1288 ANTENNA__1390__A1
*1289 ANTENNA__1392__A1
*1290 ANTENNA__1393__A1
*1291 ANTENNA__1397__A1
*1292 ANTENNA__1397__B2
*1293 ANTENNA__1398__A1
*1294 ANTENNA__1398__B2
*1295 ANTENNA__1403__A1
*1296 ANTENNA__1404__A1
*1297 ANTENNA__1411__A1
*1298 ANTENNA__1412__B2
*1299 ANTENNA__1414__A0
*1300 ANTENNA__1415__A
*1301 ANTENNA__1416__A0
*1302 ANTENNA__1417__A
*1303 ANTENNA__1419__A0
*1304 ANTENNA__1422__A0
*1305 ANTENNA__1424__A0
*1306 ANTENNA__1434__A1
*1307 ANTENNA__1435__B1
*1308 ANTENNA__1436__A1
*1309 ANTENNA__1436__A2
*1310 ANTENNA__1437__A1
*1311 ANTENNA__1437__A2
*1312 ANTENNA__1445__A
*1313 ANTENNA__1450__A
*1314 ANTENNA__1452__A
*1315 ANTENNA__1462__A
*1316 ANTENNA__1469__A
*1317 ANTENNA__1470__A
*1318 ANTENNA__1472__A
*1319 ANTENNA__1473__A
*1320 ANTENNA__1477__A
*1321 ANTENNA__1488__A
*1322 ANTENNA__1506__D1
*1323 ANTENNA__1512__A
*1324 ANTENNA__1514__A
*1325 ANTENNA__1514__C
*1326 ANTENNA__1515__B2
*1327 ANTENNA__1534__A1_N
*1328 ANTENNA__1535__C
*1329 ANTENNA__1539__A
*1330 ANTENNA__1543__B1
*1331 ANTENNA__1547__A1
*1332 ANTENNA__1552__A
*1333 ANTENNA__1556__B
*1334 ANTENNA__1557__A
*1335 ANTENNA__1560__A1
*1336 ANTENNA__1562__A1
*1337 ANTENNA__1562__A2
*1338 ANTENNA__1562__B2
*1339 ANTENNA__1566__B
*1340 ANTENNA__1569__B
*1341 ANTENNA__1572__B2
*1342 ANTENNA__1572__C1
*1343 ANTENNA__1573__B1
*1344 ANTENNA__1573__B2
*1345 ANTENNA__1575__B2
*1346 ANTENNA__1575__C1
*1347 ANTENNA__1576__A1_N
*1348 ANTENNA__1576__B1
*1349 ANTENNA__1576__B2
*1350 ANTENNA__1578__B2
*1351 ANTENNA__1579__A1_N
*1352 ANTENNA__1579__B1
*1353 ANTENNA__1579__B2
*1354 ANTENNA__1581__B2
*1355 ANTENNA__1582__A1_N
*1356 ANTENNA__1582__B1
*1357 ANTENNA__1582__B2
*1358 ANTENNA__1584__B2
*1359 ANTENNA__1585__A1_N
*1360 ANTENNA__1585__B1
*1361 ANTENNA__1585__B2
*1362 ANTENNA__1587__B2
*1363 ANTENNA__1588__A1_N
*1364 ANTENNA__1588__B1
*1365 ANTENNA__1588__B2
*1366 ANTENNA__1590__B2
*1367 ANTENNA__1591__A1_N
*1368 ANTENNA__1591__B1
*1369 ANTENNA__1591__B2
*1370 ANTENNA__1593__A1
*1371 ANTENNA__1594__A
*1372 ANTENNA__1596__A1
*1373 ANTENNA__1597__A2
*1374 ANTENNA__1598__A1
*1375 ANTENNA__1599__A1
*1376 ANTENNA__1599__B1
*1377 ANTENNA__1601__A1
*1378 ANTENNA__1601__B2
*1379 ANTENNA__1602__A2
*1380 ANTENNA__1603__A1
*1381 ANTENNA__1603__B2
*1382 ANTENNA__1604__A1
*1383 ANTENNA__1604__A2
*1384 ANTENNA__1605__A1
*1385 ANTENNA__1605__B2
*1386 ANTENNA__1606__A2
*1387 ANTENNA__1607__A1
*1388 ANTENNA__1607__B2
*1389 ANTENNA__1608__A2
*1390 ANTENNA__1609__A1
*1391 ANTENNA__1609__B2
*1392 ANTENNA__1610__A1
*1393 ANTENNA__1610__A2
*1394 ANTENNA__1610__B2
*1395 ANTENNA__1611__A1
*1396 ANTENNA__1611__B2
*1397 ANTENNA__1612__A2
*1398 ANTENNA__1613__B
*1399 ANTENNA__1614__A1
*1400 ANTENNA__1616__A1
*1401 ANTENNA__1616__B1_N
*1402 ANTENNA__1617__B2
*1403 ANTENNA__1621__B2
*1404 ANTENNA__1624__B2
*1405 ANTENNA__1625__B
*1406 ANTENNA__1627__B2
*1407 ANTENNA__1628__B2
*1408 ANTENNA__1629__A2
*1409 ANTENNA__1630__A2
*1410 ANTENNA__1630__B1
*1411 ANTENNA__1632__A1
*1412 ANTENNA__1634__A2
*1413 ANTENNA__1635__B
*1414 ANTENNA__1636__A2
*1415 ANTENNA__1636__B1
*1416 ANTENNA__1639__A
*1417 ANTENNA__1641__A1
*1418 ANTENNA__1641__B2
*1419 ANTENNA__1642__A2_N
*1420 ANTENNA__1644__A2_N
*1421 ANTENNA__1644__B2
*1422 ANTENNA__1646__A
*1423 ANTENNA__1647__A
*1424 ANTENNA__1648__A
*1425 ANTENNA__1649__A
*1426 ANTENNA__1650__A
*1427 ANTENNA__1651__A
*1428 ANTENNA__1653__A0
*1429 ANTENNA__1653__A1
*1430 ANTENNA__1658__S
*1431 ANTENNA__1663__A
*1432 ANTENNA__1664__B1
*1433 ANTENNA__1666__A1
*1434 ANTENNA__1667__S
*1435 ANTENNA__1669__A
*1436 ANTENNA__1670__A
*1437 ANTENNA__1673__B1
*1438 ANTENNA__1674__S
*1439 ANTENNA__1677__A
*1440 ANTENNA__1679__A1
*1441 ANTENNA__1680__S
*1442 ANTENNA__1682__A0
*1443 ANTENNA__1682__A1
*1444 ANTENNA__1683__S
*1445 ANTENNA__1685__A
*1446 ANTENNA__1686__A
*1447 ANTENNA__1687__B1
*1448 ANTENNA__1688__A
*1449 ANTENNA__1690__A1
*1450 ANTENNA__1691__S
*1451 ANTENNA__1693__A
*1452 ANTENNA__1694__A
*1453 ANTENNA__1697__B1
*1454 ANTENNA__1698__S
*1455 ANTENNA__1701__A
*1456 ANTENNA__1704__A1
*1457 ANTENNA__1704__A2
*1458 ANTENNA__1704__A3
*1459 ANTENNA__1705__A1
*1460 ANTENNA__1705__S
*1461 ANTENNA__1723__A1
*1462 ANTENNA__1728__A
*1463 ANTENNA__1729__B
*1464 ANTENNA__1735__B
*1465 ANTENNA__1738__S
*1466 ANTENNA__1740__S
*1467 ANTENNA__1742__S
*1468 ANTENNA__1744__S
*1469 ANTENNA__1746__S
*1470 ANTENNA__1748__S
*1471 ANTENNA__1750__S
*1472 ANTENNA__1752__S
*1473 ANTENNA__1755__A1
*1474 ANTENNA__1757__A1
*1475 ANTENNA__1758__A0
*1476 ANTENNA__1761__A2_N
*1477 ANTENNA__1761__B1
*1478 ANTENNA__1766__A
*1479 ANTENNA__1766__B
*1480 ANTENNA__1766__C
*1481 ANTENNA__1766__D
*1482 ANTENNA__1767__A
*1483 ANTENNA__1767__B
*1484 ANTENNA__1767__C
*1485 ANTENNA__1767__D
*1486 ANTENNA__1769__A0
*1487 ANTENNA__1769__A1
*1488 ANTENNA__1770__B1_N
*1489 ANTENNA__1777__A0
*1490 ANTENNA__1777__A1
*1491 ANTENNA__1778__B1
*1492 ANTENNA__1779__A1
*1493 ANTENNA__1783__A1
*1494 ANTENNA__1784__A0
*1495 ANTENNA__1785__A
*1496 ANTENNA__1787__A1
*1497 ANTENNA__1791__A0
*1498 ANTENNA__1792__A0
*1499 ANTENNA__1794__A2
*1500 ANTENNA__1796__A
*1501 ANTENNA__1800__A
*1502 ANTENNA__1800__B
*1503 ANTENNA__1802__A2
*1504 ANTENNA__1802__C1
*1505 ANTENNA__1803__A1
*1506 ANTENNA__1803__A2
*1507 ANTENNA__1804__A4
*1508 ANTENNA__1807__A
*1509 ANTENNA__1807__B
*1510 ANTENNA__1809__A0
*1511 ANTENNA__1811__A0
*1512 ANTENNA__1813__A0
*1513 ANTENNA__1815__A0
*1514 ANTENNA__1817__A0
*1515 ANTENNA__1819__A0
*1516 ANTENNA__1821__A0
*1517 ANTENNA__1823__A0
*1518 ANTENNA__1825__A
*1519 ANTENNA__1827__A1
*1520 ANTENNA__1827__B1
*1521 ANTENNA__1845__A
*1522 ANTENNA__1848__A
*1523 ANTENNA__1849__A2
*1524 ANTENNA__1849__B1
*1525 ANTENNA__1864__B1
*1526 ANTENNA__1874__S
*1527 ANTENNA__1877__A0
*1528 ANTENNA__1877__S
*1529 ANTENNA__1879__B
*1530 ANTENNA__1881__A0
*1531 ANTENNA__1881__S
*1532 ANTENNA__1885__A2
*1533 ANTENNA__1889__B
*1534 ANTENNA__1890__A2
*1535 ANTENNA__1895__A2
*1536 ANTENNA__1897__S
*1537 ANTENNA__1899__A2
*1538 ANTENNA__1900__C
*1539 ANTENNA__1910__S
*1540 ANTENNA__1914__A2
*1541 ANTENNA__1915__S
*1542 ANTENNA__1918__B2
*1543 ANTENNA__1921__A2
*1544 ANTENNA__1923__A2
*1545 ANTENNA__1924__A2
*1546 ANTENNA__1928__A1
*1547 ANTENNA__1931__A2
*1548 ANTENNA__1932__S
*1549 ANTENNA__1934__S
*1550 ANTENNA__1944__A0
*1551 ANTENNA__1950__S
*1552 ANTENNA__1952__S
*1553 ANTENNA__1954__S
*1554 ANTENNA__1956__S
*1555 ANTENNA__1958__S
*1556 ANTENNA__1960__S
*1557 ANTENNA__1962__S
*1558 ANTENNA__1964__A1
*1559 ANTENNA__1964__S
*1560 ANTENNA__1982__A1
*1561 ANTENNA__1988__CLK
*1562 ANTENNA__1989__CLK
*1563 ANTENNA__2018__CLK
*1564 ANTENNA__2022__CLK
*1565 ANTENNA__2025__CLK
*1566 ANTENNA__2041__CLK
*1567 ANTENNA__2042__CLK
*1568 ANTENNA__2044__CLK
*1569 ANTENNA__2044__D
*1570 ANTENNA__2045__CLK
*1571 ANTENNA__2046__CLK
*1572 ANTENNA__2048__CLK
*1573 ANTENNA__2071__CLK
*1574 ANTENNA__2075__CLK
*1575 ANTENNA__2090__CLK
*1576 ANTENNA__2093__CLK
*1577 ANTENNA__2094__CLK
*1578 ANTENNA__2095__CLK
*1579 ANTENNA__2096__CLK
*1580 ANTENNA_clkbuf_0_clk_A
*1581 ANTENNA_clkbuf_4_0_0_clk_A
*1582 ANTENNA_clkbuf_4_10_0_clk_A
*1583 ANTENNA_clkbuf_4_11_0_clk_A
*1584 ANTENNA_clkbuf_4_12_0_clk_A
*1585 ANTENNA_clkbuf_4_13_0_clk_A
*1586 ANTENNA_clkbuf_4_14_0_clk_A
*1587 ANTENNA_clkbuf_4_15_0_clk_A
*1588 ANTENNA_clkbuf_4_1_0_clk_A
*1589 ANTENNA_clkbuf_4_2_0_clk_A
*1590 ANTENNA_clkbuf_4_3_0_clk_A
*1591 ANTENNA_clkbuf_4_4_0_clk_A
*1592 ANTENNA_clkbuf_4_5_0_clk_A
*1593 ANTENNA_clkbuf_4_6_0_clk_A
*1594 ANTENNA_clkbuf_4_7_0_clk_A
*1595 ANTENNA_clkbuf_4_8_0_clk_A
*1596 ANTENNA_clkbuf_4_9_0_clk_A
*1597 ANTENNA_input10_A
*1598 ANTENNA_input11_A
*1599 ANTENNA_input1_A
*1600 ANTENNA_input2_A
*1601 ANTENNA_input3_A
*1602 ANTENNA_input4_A
*1603 ANTENNA_input5_A
*1604 ANTENNA_input6_A
*1605 ANTENNA_input7_A
*1606 ANTENNA_input8_A
*1607 ANTENNA_input9_A
*1608 FILLER_0_109
*1609 FILLER_0_113
*1610 FILLER_0_125
*1611 FILLER_0_137
*1612 FILLER_0_141
*1613 FILLER_0_15
*1614 FILLER_0_153
*1615 FILLER_0_165
*1616 FILLER_0_169
*1617 FILLER_0_181
*1618 FILLER_0_193
*1619 FILLER_0_197
*1620 FILLER_0_209
*1621 FILLER_0_221
*1622 FILLER_0_225
*1623 FILLER_0_237
*1624 FILLER_0_249
*1625 FILLER_0_253
*1626 FILLER_0_265
*1627 FILLER_0_27
*1628 FILLER_0_277
*1629 FILLER_0_281
*1630 FILLER_0_29
*1631 FILLER_0_293
*1632 FILLER_0_3
*1633 FILLER_0_305
*1634 FILLER_0_309
*1635 FILLER_0_321
*1636 FILLER_0_333
*1637 FILLER_0_337
*1638 FILLER_0_349
*1639 FILLER_0_361
*1640 FILLER_0_365
*1641 FILLER_0_377
*1642 FILLER_0_389
*1643 FILLER_0_393
*1644 FILLER_0_405
*1645 FILLER_0_41
*1646 FILLER_0_417
*1647 FILLER_0_421
*1648 FILLER_0_433
*1649 FILLER_0_445
*1650 FILLER_0_449
*1651 FILLER_0_453
*1652 FILLER_0_460
*1653 FILLER_0_53
*1654 FILLER_0_57
*1655 FILLER_0_69
*1656 FILLER_0_81
*1657 FILLER_0_85
*1658 FILLER_0_97
*1659 FILLER_10_109
*1660 FILLER_10_121
*1661 FILLER_10_133
*1662 FILLER_10_139
*1663 FILLER_10_141
*1664 FILLER_10_15
*1665 FILLER_10_153
*1666 FILLER_10_165
*1667 FILLER_10_177
*1668 FILLER_10_189
*1669 FILLER_10_195
*1670 FILLER_10_197
*1671 FILLER_10_209
*1672 FILLER_10_221
*1673 FILLER_10_233
*1674 FILLER_10_245
*1675 FILLER_10_251
*1676 FILLER_10_253
*1677 FILLER_10_265
*1678 FILLER_10_27
*1679 FILLER_10_277
*1680 FILLER_10_289
*1681 FILLER_10_29
*1682 FILLER_10_3
*1683 FILLER_10_301
*1684 FILLER_10_307
*1685 FILLER_10_309
*1686 FILLER_10_321
*1687 FILLER_10_333
*1688 FILLER_10_345
*1689 FILLER_10_357
*1690 FILLER_10_363
*1691 FILLER_10_365
*1692 FILLER_10_377
*1693 FILLER_10_389
*1694 FILLER_10_401
*1695 FILLER_10_41
*1696 FILLER_10_413
*1697 FILLER_10_419
*1698 FILLER_10_421
*1699 FILLER_10_433
*1700 FILLER_10_445
*1701 FILLER_10_457
*1702 FILLER_10_460
*1703 FILLER_10_53
*1704 FILLER_10_65
*1705 FILLER_10_77
*1706 FILLER_10_83
*1707 FILLER_10_85
*1708 FILLER_10_97
*1709 FILLER_11_105
*1710 FILLER_11_111
*1711 FILLER_11_113
*1712 FILLER_11_125
*1713 FILLER_11_137
*1714 FILLER_11_149
*1715 FILLER_11_15
*1716 FILLER_11_161
*1717 FILLER_11_167
*1718 FILLER_11_169
*1719 FILLER_11_181
*1720 FILLER_11_193
*1721 FILLER_11_205
*1722 FILLER_11_217
*1723 FILLER_11_223
*1724 FILLER_11_225
*1725 FILLER_11_237
*1726 FILLER_11_249
*1727 FILLER_11_261
*1728 FILLER_11_27
*1729 FILLER_11_273
*1730 FILLER_11_279
*1731 FILLER_11_281
*1732 FILLER_11_293
*1733 FILLER_11_3
*1734 FILLER_11_305
*1735 FILLER_11_317
*1736 FILLER_11_329
*1737 FILLER_11_335
*1738 FILLER_11_337
*1739 FILLER_11_349
*1740 FILLER_11_361
*1741 FILLER_11_373
*1742 FILLER_11_385
*1743 FILLER_11_39
*1744 FILLER_11_391
*1745 FILLER_11_393
*1746 FILLER_11_405
*1747 FILLER_11_417
*1748 FILLER_11_429
*1749 FILLER_11_441
*1750 FILLER_11_447
*1751 FILLER_11_449
*1752 FILLER_11_454
*1753 FILLER_11_460
*1754 FILLER_11_51
*1755 FILLER_11_55
*1756 FILLER_11_57
*1757 FILLER_11_69
*1758 FILLER_11_81
*1759 FILLER_11_93
*1760 FILLER_12_109
*1761 FILLER_12_121
*1762 FILLER_12_133
*1763 FILLER_12_139
*1764 FILLER_12_141
*1765 FILLER_12_15
*1766 FILLER_12_153
*1767 FILLER_12_165
*1768 FILLER_12_177
*1769 FILLER_12_189
*1770 FILLER_12_195
*1771 FILLER_12_197