*SPEF "ieee 1481-1999"
*DESIGN "wrapped_MC14500"
*DATE "11:11:11 Fri 11 11, 1111"
*VENDOR "OpenRCX"
*PROGRAM "Parallel Extraction"
*VERSION "1.0"
*DESIGN_FLOW "NAME_SCOPE LOCAL" "PIN_CAP NONE"
*DIVIDER /
*DELIMITER :
*BUS_DELIMITER []
*T_UNIT 1 NS
*C_UNIT 1 PF
*R_UNIT 1 OHM
*L_UNIT 1 HENRY

*NAME_MAP
*1 clk
*2 io_in[0]
*3 io_in[1]
*4 io_in[2]
*5 io_in[3]
*6 io_in[4]
*7 io_oeb
*8 io_out[0]
*9 io_out[1]
*10 io_out[2]
*11 io_out[3]
*12 io_out[4]
*13 io_out[5]
*14 io_out[6]
*15 io_out[7]
*16 net7
*17 rst
*20 _000_
*21 _001_
*22 _002_
*23 _003_
*24 _004_
*25 _005_
*26 _010_
*27 _011_
*28 _012_
*29 _013_
*30 _014_
*31 _015_
*32 _016_
*33 _017_
*34 _018_
*35 _019_
*36 _020_
*37 _021_
*38 _022_
*39 _023_
*40 _024_
*41 _025_
*42 _026_
*43 _027_
*44 _028_
*45 _029_
*46 _030_
*47 _031_
*48 _032_
*49 _033_
*50 _034_
*51 _035_
*52 _036_
*53 _037_
*54 _038_
*55 _039_
*56 _040_
*57 _041_
*58 _042_
*59 clknet_0_clk
*60 clknet_1_0__leaf_clk
*61 clknet_1_1__leaf_clk
*62 mc14500\.IEN_l
*63 mc14500\.OEN_l
*64 mc14500\.instr\[0\]
*65 mc14500\.instr\[1\]
*66 mc14500\.instr\[2\]
*67 mc14500\.instr\[3\]
*68 mc14500\.skip
*69 net1
*70 net10
*71 net11
*72 net12
*73 net2
*74 net3
*75 net4
*76 net5
*77 net6
*78 net8
*79 net9
*80 ANTENNA_clkbuf_0_clk_A
*81 ANTENNA_input1_A
*82 ANTENNA_input2_A
*83 ANTENNA_input3_A
*84 ANTENNA_input4_A
*85 ANTENNA_input5_A
*86 ANTENNA_input6_A
*87 FILLER_0_101
*88 FILLER_0_11
*89 FILLER_0_18
*90 FILLER_0_26
*91 FILLER_0_29
*92 FILLER_0_3
*93 FILLER_0_44
*94 FILLER_0_54
*95 FILLER_0_57
*96 FILLER_0_62
*97 FILLER_0_69
*98 FILLER_0_81
*99 FILLER_0_85
*100 FILLER_0_97
*101 FILLER_10_16
*102 FILLER_10_26
*103 FILLER_10_29
*104 FILLER_10_3
*105 FILLER_10_37
*106 FILLER_10_50
*107 FILLER_10_60
*108 FILLER_10_72
*109 FILLER_10_85
*110 FILLER_10_9
*111 FILLER_10_97
*112 FILLER_11_101
*113 FILLER_11_15
*114 FILLER_11_3
*115 FILLER_11_37
*116 FILLER_11_49
*117 FILLER_11_55
*118 FILLER_11_57
*119 FILLER_11_69
*120 FILLER_11_81
*121 FILLER_11_93
*122 FILLER_12_14
*123 FILLER_12_18
*124 FILLER_12_22
*125 FILLER_12_29
*126 FILLER_12_3
*127 FILLER_12_37
*128 FILLER_12_47
*129 FILLER_12_59
*130 FILLER_12_71
*131 FILLER_12_8
*132 FILLER_12_83
*133 FILLER_12_85
*134 FILLER_12_97
*135 FILLER_13_101
*136 FILLER_13_11
*137 FILLER_13_18
*138 FILLER_13_3
*139 FILLER_13_30
*140 FILLER_13_42
*141 FILLER_13_54
*142 FILLER_13_57
*143 FILLER_13_69
*144 FILLER_13_81
*145 FILLER_13_93
*146 FILLER_14_26
*147 FILLER_14_29
*148 FILLER_14_3
*149 FILLER_14_35
*150 FILLER_14_44
*151 FILLER_14_51
*152 FILLER_14_63
*153 FILLER_14_75
*154 FILLER_14_83
*155 FILLER_14_85
*156 FILLER_14_9
*157 FILLER_14_97
*158 FILLER_15_101
*159 FILLER_15_15
*160 FILLER_15_3
*161 FILLER_15_32
*162 FILLER_15_41
*163 FILLER_15_53
*164 FILLER_15_57
*165 FILLER_15_69
*166 FILLER_15_81
*167 FILLER_15_93
*168 FILLER_16_15
*169 FILLER_16_27
*170 FILLER_16_29
*171 FILLER_16_3
*172 FILLER_16_47
*173 FILLER_16_59
*174 FILLER_16_71
*175 FILLER_16_83
*176 FILLER_16_85
*177 FILLER_16_97
*178 FILLER_17_101
*179 FILLER_17_11
*180 FILLER_17_18
*181 FILLER_17_3
*182 FILLER_17_30
*183 FILLER_17_35
*184 FILLER_17_47
*185 FILLER_17_55
*186 FILLER_17_57
*187 FILLER_17_69
*188 FILLER_17_81
*189 FILLER_17_93
*190 FILLER_18_15
*191 FILLER_18_27
*192 FILLER_18_29
*193 FILLER_18_3
*194 FILLER_18_41
*195 FILLER_18_53
*196 FILLER_18_65
*197 FILLER_18_77
*198 FILLER_18_83
*199 FILLER_18_85
*200 FILLER_18_97
*201 FILLER_19_101
*202 FILLER_19_14
*203 FILLER_19_26
*204 FILLER_19_3
*205 FILLER_19_38
*206 FILLER_19_50
*207 FILLER_19_57
*208 FILLER_19_69
*209 FILLER_19_8
*210 FILLER_19_81
*211 FILLER_19_93
*212 FILLER_1_25
*213 FILLER_1_3
*214 FILLER_1_45
*215 FILLER_1_53
*216 FILLER_1_57
*217 FILLER_1_61
*218 FILLER_1_73
*219 FILLER_1_85
*220 FILLER_1_97
*221 FILLER_20_15
*222 FILLER_20_27
*223 FILLER_20_29
*224 FILLER_20_3
*225 FILLER_20_41
*226 FILLER_20_53
*227 FILLER_20_65
*228 FILLER_20_77
*229 FILLER_20_83
*230 FILLER_20_85
*231 FILLER_20_97
*232 FILLER_21_101
*233 FILLER_21_15
*234 FILLER_21_27
*235 FILLER_21_3
*236 FILLER_21_39
*237 FILLER_21_51
*238 FILLER_21_55
*239 FILLER_21_57
*240 FILLER_21_69
*241 FILLER_21_81
*242 FILLER_21_93
*243 FILLER_22_15
*244 FILLER_22_27
*245 FILLER_22_29
*246 FILLER_22_3
*247 FILLER_22_41
*248 FILLER_22_53
*249 FILLER_22_65
*250 FILLER_22_77
*251 FILLER_22_83
*252 FILLER_22_85
*253 FILLER_22_97
*254 FILLER_23_101
*255 FILLER_23_19
*256 FILLER_23_3
*257 FILLER_23_31
*258 FILLER_23_43
*259 FILLER_23_55
*260 FILLER_23_57
*261 FILLER_23_69
*262 FILLER_23_7
*263 FILLER_23_81
*264 FILLER_23_93
*265 FILLER_24_102
*266 FILLER_24_15
*267 FILLER_24_27
*268 FILLER_24_29
*269 FILLER_24_3
*270 FILLER_24_41
*271 FILLER_24_53
*272 FILLER_24_57
*273 FILLER_24_69
*274 FILLER_24_81
*275 FILLER_24_85
*276 FILLER_24_90
*277 FILLER_24_96
*278 FILLER_2_11
*279 FILLER_2_22
*280 FILLER_2_29
*281 FILLER_2_3
*282 FILLER_2_44
*283 FILLER_2_55
*284 FILLER_2_63
*285 FILLER_2_71
*286 FILLER_2_83
*287 FILLER_2_85
*288 FILLER_2_97
*289 FILLER_3_25
*290 FILLER_3_3
*291 FILLER_3_38
*292 FILLER_3_50
*293 FILLER_3_57
*294 FILLER_3_61
*295 FILLER_3_66
*296 FILLER_3_73
*297 FILLER_3_85
*298 FILLER_3_97
*299 FILLER_4_11
*300 FILLER_4_19
*301 FILLER_4_24
*302 FILLER_4_29
*303 FILLER_4_3
*304 FILLER_4_42
*305 FILLER_4_53
*306 FILLER_4_60
*307 FILLER_4_72
*308 FILLER_4_85
*309 FILLER_4_97
*310 FILLER_5_100
*311 FILLER_5_26
*312 FILLER_5_3
*313 FILLER_5_33
*314 FILLER_5_42
*315 FILLER_5_51
*316 FILLER_5_55
*317 FILLER_5_57
*318 FILLER_5_64
*319 FILLER_5_76
*320 FILLER_5_88
*321 FILLER_5_9
*322 FILLER_6_12
*323 FILLER_6_21
*324 FILLER_6_27
*325 FILLER_6_29
*326 FILLER_6_3
*327 FILLER_6_33
*328 FILLER_6_48
*329 FILLER_6_55
*330 FILLER_6_67
*331 FILLER_6_79
*332 FILLER_6_83
*333 FILLER_6_85
*334 FILLER_6_97
*335 FILLER_7_101
*336 FILLER_7_17
*337 FILLER_7_3
*338 FILLER_7_41
*339 FILLER_7_53
*340 FILLER_7_57
*341 FILLER_7_69
*342 FILLER_7_8
*343 FILLER_7_81
*344 FILLER_7_93
*345 FILLER_8_26
*346 FILLER_8_29
*347 FILLER_8_3
*348 FILLER_8_40
*349 FILLER_8_49
*350 FILLER_8_61
*351 FILLER_8_73
*352 FILLER_8_81
*353 FILLER_8_85
*354 FILLER_8_9
*355 FILLER_8_97
*356 FILLER_9_102
*357 FILLER_9_15
*358 FILLER_9_3
*359 FILLER_9_36
*360 FILLER_9_49
*361 FILLER_9_55
*362 FILLER_9_57
*363 FILLER_9_62
*364 FILLER_9_7
*365 FILLER_9_74
*366 FILLER_9_86
*367 FILLER_9_98
*368 PHY_0
*369 PHY_1
*370 PHY_10
*371 PHY_11
*372 PHY_12
*373 PHY_13
*374 PHY_14
*375 PHY_15
*376 PHY_16
*377 PHY_17
*378 PHY_18
*379 PHY_19
*380 PHY_2
*381 PHY_20
*382 PHY_21
*383 PHY_22
*384 PHY_23
*385 PHY_24
*386 PHY_25
*387 PHY_26
*388 PHY_27
*389 PHY_28
*390 PHY_29
*391 PHY_3
*392 PHY_30
*393 PHY_31
*394 PHY_32
*395 PHY_33
*396 PHY_34
*397 PHY_35
*398 PHY_36
*399 PHY_37
*400 PHY_38
*401 PHY_39
*402 PHY_4
*403 PHY_40
*404 PHY_41
*405 PHY_42
*406 PHY_43
*407 PHY_44
*408 PHY_45
*409 PHY_46
*410 PHY_47
*411 PHY_48
*412 PHY_49
*413 PHY_5
*414 PHY_6
*415 PHY_7
*416 PHY_8
*417 PHY_9
*418 TAP_50
*419 TAP_51
*420 TAP_52
*421 TAP_53
*422 TAP_54
*423 TAP_55
*424 TAP_56
*425 TAP_57
*426 TAP_58
*427 TAP_59
*428 TAP_60
*429 TAP_61
*430 TAP_62
*431 TAP_63
*432 TAP_64
*433 TAP_65
*434 TAP_66
*435 TAP_67
*436 TAP_68
*437 TAP_69
*438 TAP_70
*439 TAP_71
*440 TAP_72
*441 TAP_73
*442 TAP_74
*443 TAP_75
*444 TAP_76
*445 TAP_77
*446 TAP_78
*447 TAP_79
*448 TAP_80
*449 TAP_81
*450 TAP_82
*451 TAP_83
*452 TAP_84
*453 TAP_85
*454 TAP_86
*455 TAP_87
*456 TAP_88
*457 TAP_89
*458 _043_
*459 _044_
*460 _045_
*461 _046_
*462 _047_
*463 _048_
*464 _049_
*465 _050_
*466 _051_
*467 _052_
*468 _053_
*469 _054_
*470 _055_
*471 _056_
*472 _057_
*473 _058_
*474 _059_
*475 _060_
*476 _061_
*477 _062_
*478 _063_
*479 _064_
*480 _065_
*481 _066_
*482 _067_
*483 _068_
*484 _069_
*485 _070_
*486 _071_
*487 _072__1
*488 _072__2
*489 _073_
*490 _074_
*491 _075_
*492 _076_
*493 _077_
*494 _078_
*495 _079_
*496 _080_
*497 _081_
*498 _082_
*499 _083_
*500 _084_
*501 _085_
*502 _086_
*503 _087_
*504 _088_
*505 _089_
*506 _090__3
*507 _091__4
*508 _092__5
*509 _093_
*510 _094_
*511 _095_
*512 _096_
*513 _097_
*514 _098_
*515 _099_
*516 _100_
*517 _102_
*518 clkbuf_0_clk
*519 clkbuf_1_0__f_clk
*520 clkbuf_1_1__f_clk
*521 input1
*522 input2
*523 input3
*524 input4
*525 input5
*526 input6
*527 wrapped_MC14500_7

*PORTS
clk I
io_in[0] I
io_in[1] I
io_in[2] I
io_in[3] I
io_in[4] I
io_oeb O
io_out[0] O
io_out[1] O
io_out[2] O
io_out[3] O
io_out[4] O
io_out[5] O
io_out[6] O
io_out[7] O
io_out[8] O
rst I

*D_NET *1 0.00440368
*CONN
*P clk I
*I *80:DIODE I *D sky130_fd_sc_hd__diode_2
*I *518:A I *D sky130_fd_sc_hd__clkbuf_16
*CAP
1 clk 0.00015668
2 *80:DIODE 0.000276323
3 *518:A 0
4 *1:11 0.000276323
5 *1:9 0.00176884
6 *1:7 0.00192551
7 *80:DIODE *463:A 0
8 *80:DIODE *65:63 0
9 *1:9 *463:A 0
10 *1:9 *480:D 0
11 *1:9 *513:D 0
12 *1:9 *516:CLK 0
13 *1:9 *61:8 0
14 *1:9 *61:23 0
15 *1:9 *61:32 0
16 *1:9 *61:44 0
*RES
1 clk *1:7 4.08036 
2 *1:7 *1:9 45.9732 
3 *1:9 *1:11 9 
4 *1:11 *518:A 9.3 
5 *1:11 *80:DIODE 33.4786 
*END

*D_NET *2 0.00290166
*CONN
*P io_in[0] I
*I *521:A I *D sky130_fd_sc_hd__clkbuf_1
*I *81:DIODE I *D sky130_fd_sc_hd__diode_2
*CAP
1 io_in[0] 0.00135341
2 *521:A 2.26741e-05
3 *81:DIODE 7.474e-05
4 *2:15 0.00145083
5 *81:DIODE io_out[5] 0
6 *81:DIODE *21:13 0
7 *81:DIODE *51:8 0
8 *521:A *7:11 0
9 *2:15 io_out[3] 0
10 *2:15 *468:A 0
11 *2:15 *469:A 0
12 *2:15 *498:A2 0
13 *2:15 *498:B1 0
14 *2:15 *7:11 0
15 *2:15 *69:10 0
*RES
1 io_in[0] *2:15 29.7164 
2 *2:15 *81:DIODE 29.2464 
3 *2:15 *521:A 9.83571 
*END

*D_NET *3 0.00102655
*CONN
*P io_in[1] I
*I *82:DIODE I *D sky130_fd_sc_hd__diode_2
*I *522:A I *D sky130_fd_sc_hd__clkbuf_1
*CAP
1 io_in[1] 0.000356937
2 *82:DIODE 0.000156337
3 *522:A 0
4 *3:8 0.000513273
5 *82:DIODE *37:14 0
6 *3:8 *37:14 0
*RES
1 io_in[1] *3:8 8.41341 
2 *3:8 *522:A 18.3 
3 *3:8 *82:DIODE 22.3714 
*END

*D_NET *4 0.000698289
*CONN
*P io_in[2] I
*I *83:DIODE I *D sky130_fd_sc_hd__diode_2
*I *523:A I *D sky130_fd_sc_hd__clkbuf_1
*CAP
1 io_in[2] 0.0002054
2 *83:DIODE 0.000143745
3 *523:A 0
4 *4:10 0.000349145
*RES
1 io_in[2] *4:10 13.467 
2 *4:10 *523:A 9.3 
3 *4:10 *83:DIODE 12.3 
*END

*D_NET *5 0.000814856
*CONN
*P io_in[3] I
*I *84:DIODE I *D sky130_fd_sc_hd__diode_2
*I *524:A I *D sky130_fd_sc_hd__clkbuf_1
*CAP
1 io_in[3] 0.000263683
2 *84:DIODE 0.000143745
3 *524:A 0
4 *5:10 0.000407428
5 *84:DIODE *496:B 0
6 *5:10 *496:B 0
7 *5:10 *76:8 0
*RES
1 io_in[3] *5:10 14.9848 
2 *5:10 *524:A 9.3 
3 *5:10 *84:DIODE 12.3 
*END

*D_NET *6 0.000700228
*CONN
*P io_in[4] I
*I *525:A I *D sky130_fd_sc_hd__dlymetal6s2s_1
*I *85:DIODE I *D sky130_fd_sc_hd__diode_2
*CAP
1 io_in[4] 0.000275374
2 *525:A 0
3 *85:DIODE 7.474e-05
4 *6:8 0.000350114
5 *85:DIODE *76:8 0
*RES
1 io_in[4] *6:8 6.28841 
2 *6:8 *85:DIODE 20.2464 
3 *6:8 *525:A 18.3 
*END

*D_NET *7 0.0046082
*CONN
*P io_oeb O
*I *489:B I *D sky130_fd_sc_hd__nor2_2
*I *469:X O *D sky130_fd_sc_hd__clkbuf_4
*CAP
1 io_oeb 0.000276332
2 *489:B 0
3 *469:X 0
4 *7:29 0.000769924
5 *7:11 0.00153417
6 *7:5 0.00202777
7 *7:11 io_out[4] 0
8 *7:11 *21:13 0
9 *7:29 io_out[4] 0
10 *7:29 *468:A 0
11 *7:29 *468:B 0
12 *7:29 *499:A1 0
13 *7:29 *505:A 0
14 *7:29 *51:8 0
15 *521:A *7:11 0
16 *2:15 *7:11 0
*RES
1 *469:X *7:5 18.3 
2 *7:5 *7:11 44.5179 
3 *7:11 io_oeb 7.19643 
4 *7:5 *7:29 43.8929 
5 *7:29 *489:B 9.3 
*END

*D_NET *8 0.00253853
*CONN
*P io_out[0] O
*I *499:Y O *D sky130_fd_sc_hd__a21oi_4
*CAP
1 io_out[0] 0.00126927
2 *499:Y 0.00126927
3 io_out[0] *490:B 0
4 io_out[0] *51:8 0
*RES
1 *499:Y io_out[0] 47.2464 
*END

*D_NET *9 0.000580689
*CONN
*P io_out[1] O
*I *517:X O *D sky130_fd_sc_hd__buf_2
*CAP
1 io_out[1] 0.000290344
2 *517:X 0.000290344
*RES
1 *517:X io_out[1] 25.7286 
*END

*D_NET *10 0.000902331
*CONN
*P io_out[2] O
*I *489:Y O *D sky130_fd_sc_hd__nor2_2
*CAP
1 io_out[2] 0.000451166
2 *489:Y 0.000451166
3 io_out[2] *489:A 0
4 io_out[2] *78:10 0
*RES
1 *489:Y io_out[2] 30.05 
*END

*D_NET *11 0.00642051
*CONN
*P io_out[3] O
*I *485:A I *D sky130_fd_sc_hd__inv_2
*I *477:B I *D sky130_fd_sc_hd__and2b_1
*I *476:A_N I *D sky130_fd_sc_hd__and2b_1
*I *483:B1 I *D sky130_fd_sc_hd__o31a_1
*I *499:A1 I *D sky130_fd_sc_hd__a21oi_4
*I *498:A1 I *D sky130_fd_sc_hd__o21ai_1
*I *514:Q O *D sky130_fd_sc_hd__dfxtp_4
*CAP
1 io_out[3] 0.000264676
2 *485:A 0.000409243
3 *477:B 0.000175492
4 *476:A_N 0.00030118
5 *483:B1 0
6 *499:A1 6.50276e-05
7 *498:A1 0.000257543
8 *514:Q 0
9 *11:73 0.000886771
10 *11:34 0.00075741
11 *11:28 0.000888838
12 *11:15 0.00110421
13 *11:6 0.000912427
14 *11:4 0.000397689
15 *476:A_N *478:A 0
16 *476:A_N *62:13 0
17 *477:B *481:B2 0
18 *477:B *481:C1 0
19 *485:A *484:A1 0
20 *485:A *486:A3 0
21 *485:A *486:A4 0
22 *485:A *49:11 0
23 *485:A *77:9 0
24 *498:A1 *498:A2 0
25 *498:A1 *498:B1 0
26 *499:A1 *51:8 0
27 *11:6 *479:B1 0
28 *11:6 *66:11 0
29 *11:6 *67:17 0
30 *11:15 *462:S 0
31 *11:15 *479:A2 0
32 *11:15 *479:B1 0
33 *11:15 *481:A2 0
34 *11:15 *519:A 0
35 *11:15 *520:A 0
36 *11:15 *38:32 0
37 *11:15 *64:38 0
38 *11:15 *65:14 0
39 *11:15 *66:17 0
40 *11:15 *67:17 0
41 *11:28 *462:S 0
42 *11:28 *466:A0 0
43 *11:28 *466:S 0
44 *11:28 *468:B 0
45 *11:28 *519:A 0
46 *11:28 *21:13 0
47 *11:28 *30:26 0
48 *11:28 *38:32 0
49 *11:28 *38:44 0
50 *11:28 *67:22 0
51 *11:34 *466:A0 0
52 *11:34 *499:B1 0
53 *11:34 *519:A 0
54 *11:34 *63:20 0
55 *11:73 *480:A_N 0
56 *11:73 *480:B 0
57 *11:73 *480:D 0
58 *2:15 io_out[3] 0
59 *7:29 *499:A1 0
*RES
1 *514:Q *11:4 9.3 
2 *11:4 *11:6 11.5536 
3 *11:6 *11:15 21.7857 
4 *11:15 *11:28 41.4464 
5 *11:28 *11:34 6.25 
6 *11:34 io_out[3] 6.89286 
7 *11:34 *498:A1 23.675 
8 *11:28 *499:A1 19.6571 
9 *11:15 *483:B1 9.3 
10 *11:6 *476:A_N 24.5857 
11 *11:4 *11:73 15.3036 
12 *11:73 *477:B 22.2286 
13 *11:73 *485:A 28.7464 
*END

*D_NET *12 0.000924631
*CONN
*P io_out[4] O
*I *505:X O *D sky130_fd_sc_hd__buf_2
*CAP
1 io_out[4] 0.000462315
2 *505:X 0.000462315
3 io_out[4] *468:A 0
4 io_out[4] *63:20 0
5 *7:11 io_out[4] 0
6 *7:29 io_out[4] 0
*RES
1 *505:X io_out[4] 29.8 
*END

*D_NET *13 0.000993027
*CONN
*P io_out[5] O
*I *503:X O *D sky130_fd_sc_hd__buf_2
*CAP
1 io_out[5] 0.000496514
2 *503:X 0.000496514
3 io_out[5] *21:13 0
4 io_out[5] *51:8 0
5 io_out[5] *69:10 0
6 *81:DIODE io_out[5] 0
*RES
1 *503:X io_out[5] 30.9964 
*END

*D_NET *14 0.001439
*CONN
*P io_out[6] O
*I *474:X O *D sky130_fd_sc_hd__buf_2
*CAP
1 io_out[6] 0.0007195
2 *474:X 0.0007195
3 io_out[6] *458:A 0
4 io_out[6] *501:A 0
5 io_out[6] *28:10 0
6 io_out[6] *51:8 0
*RES
1 *474:X io_out[6] 36.1929 
*END

*D_NET *15 0.00154408
*CONN
*P io_out[7] O
*I *501:X O *D sky130_fd_sc_hd__buf_2
*CAP
1 io_out[7] 0.000772042
2 *501:X 0.000772042
*RES
1 *501:X io_out[7] 36.7464 
*END

*D_NET *16 0.000575978
*CONN
*P io_out[8] O
*I *527:LO O *D sky130_fd_sc_hd__conb_1
*CAP
1 io_out[8] 0.000287989
2 *527:LO 0.000287989
*RES
1 *527:LO io_out[8] 25.8 
*END

*D_NET *17 0.000990457
*CONN
*P rst I
*I *86:DIODE I *D sky130_fd_sc_hd__diode_2
*I *526:A I *D sky130_fd_sc_hd__clkbuf_1
*CAP
1 rst 0.000390842
2 *86:DIODE 0.000104386
3 *526:A 0
4 *17:9 0.000495229
*RES
1 rst *17:9 19.1786 
2 *17:9 *526:A 9.3 
3 *17:9 *86:DIODE 11.4786 
*END

*D_NET *20 0.000846501
*CONN
*I *514:D I *D sky130_fd_sc_hd__dfxtp_4
*I *484:X O *D sky130_fd_sc_hd__o21ba_1
*CAP
1 *514:D 0.00042325
2 *484:X 0.00042325
3 *514:D *480:A_N 0
4 *514:D *480:D 0
5 *514:D *66:11 0
*RES
1 *484:X *514:D 45.7607 
*END

*D_NET *21 0.00278135
*CONN
*I *510:D I *D sky130_fd_sc_hd__dfxtp_1
*I *491:X O *D sky130_fd_sc_hd__clkbuf_1
*CAP
1 *510:D 0.000472305
2 *491:X 0.00091837
3 *21:13 0.00139068
4 *510:D *467:A 0
5 *510:D *64:11 0
6 *21:13 *466:S 0
7 *21:13 *501:A 0
8 *21:13 *502:B 0
9 *21:13 *504:A_N 0
10 *21:13 *504:D 0
11 *21:13 *28:10 0
12 *21:13 *51:8 0
13 *21:13 *64:11 0
14 *21:13 *69:10 0
15 io_out[5] *21:13 0
16 *81:DIODE *21:13 0
17 *7:11 *21:13 0
18 *11:28 *21:13 0
*RES
1 *491:X *21:13 47.7286 
2 *21:13 *510:D 19.2509 
*END

*D_NET *22 0.000180116
*CONN
*I *511:D I *D sky130_fd_sc_hd__dfxtp_1
*I *493:X O *D sky130_fd_sc_hd__clkbuf_1
*CAP
1 *511:D 9.0058e-05
2 *493:X 9.0058e-05
*RES
1 *493:X *511:D 38.7473 
*END

*D_NET *23 0.000197228
*CONN
*I *512:D I *D sky130_fd_sc_hd__dfxtp_1
*I *495:X O *D sky130_fd_sc_hd__clkbuf_1
*CAP
1 *512:D 9.86142e-05
2 *495:X 9.86142e-05
3 *512:D *512:CLK 0
*RES
1 *495:X *512:D 38.9259 
*END

*D_NET *24 0.000419062
*CONN
*I *513:D I *D sky130_fd_sc_hd__dfxtp_1
*I *497:X O *D sky130_fd_sc_hd__clkbuf_1
*CAP
1 *513:D 0.000209531
2 *497:X 0.000209531
3 *513:D *37:11 0
4 *513:D *61:44 0
5 *1:9 *513:D 0
*RES
1 *497:X *513:D 41.783 
*END

*D_NET *25 0.000383907
*CONN
*I *516:D I *D sky130_fd_sc_hd__dfxtp_1
*I *486:X O *D sky130_fd_sc_hd__a41o_1
*CAP
1 *516:D 0.000191954
2 *486:X 0.000191954
3 *516:D *470:A 0
4 *516:D *508:A 0
5 *516:D *67:10 0
*RES
1 *486:X *516:D 41.3545 
*END

*D_NET *26 0.000868434
*CONN
*I *509:D I *D sky130_fd_sc_hd__dfxtp_1
*I *467:X O *D sky130_fd_sc_hd__clkbuf_1
*CAP
1 *509:D 0.000434217
2 *467:X 0.000434217
3 *509:D *466:A0 0
4 *509:D *466:A1 0
5 *509:D *499:B1 0
6 *509:D *519:A 0
7 *509:D *37:34 0
*RES
1 *467:X *509:D 46.9571 
*END

*D_NET *27 0.000157938
*CONN
*I *515:D I *D sky130_fd_sc_hd__dfxtp_1
*I *463:X O *D sky130_fd_sc_hd__clkbuf_1
*CAP
1 *515:D 7.89691e-05
2 *463:X 7.89691e-05
3 *515:D *37:14 0
4 *515:D *76:13 0
*RES
1 *463:X *515:D 38.5152 
*END

*D_NET *28 0.00201813
*CONN
*I *502:D I *D sky130_fd_sc_hd__and4_1
*I *461:B I *D sky130_fd_sc_hd__or3_1
*I *504:B I *D sky130_fd_sc_hd__and4b_1
*I *458:Y O *D sky130_fd_sc_hd__inv_2
*CAP
1 *502:D 0
2 *461:B 0.000262823
3 *504:B 8.55626e-05
4 *458:Y 0.000454604
5 *28:14 0.000554459
6 *28:10 0.000660677
7 *461:B *461:C 0
8 *461:B *502:C 0
9 *461:B *37:34 0
10 *461:B *64:24 0
11 *461:B *66:36 0
12 *504:B *504:A_N 0
13 *504:B *504:C 0
14 *28:10 *458:A 0
15 *28:10 *505:A 0
16 *28:14 *502:B 0
17 *28:14 *502:C 0
18 *28:14 *505:A 0
19 *28:14 *51:8 0
20 io_out[6] *28:10 0
21 *21:13 *28:10 0
*RES
1 *458:Y *28:10 37.175 
2 *28:10 *28:14 13.9286 
3 *28:14 *504:B 20.0857 
4 *28:14 *461:B 24.2821 
5 *28:10 *502:D 9.3 
*END

*D_NET *29 0.00199834
*CONN
*I *481:C1 I *D sky130_fd_sc_hd__o221a_1
*I *460:A I *D sky130_fd_sc_hd__or2_1
*I *473:A I *D sky130_fd_sc_hd__and3_1
*I *459:Y O *D sky130_fd_sc_hd__inv_2
*CAP
1 *481:C1 0.000285546
2 *460:A 0
3 *473:A 0.00030118
4 *459:Y 0
5 *29:12 0.000713622
6 *29:5 0.000697987
7 *473:A *473:C 0
8 *473:A *482:A 0
9 *473:A *30:5 0
10 *481:C1 *477:A_N 0
11 *29:12 *460:B 0
12 *477:B *481:C1 0
*RES
1 *459:Y *29:5 18.3 
2 *29:5 *29:12 19.8036 
3 *29:12 *473:A 15.5857 
4 *29:12 *460:A 9.3 
5 *29:5 *481:C1 24.5857 
*END

*D_NET *30 0.00251996
*CONN
*I *461:C I *D sky130_fd_sc_hd__or3_1
*I *468:B I *D sky130_fd_sc_hd__or3b_1
*I *465:A I *D sky130_fd_sc_hd__nor2_1
*I *460:X O *D sky130_fd_sc_hd__or2_1
*CAP
1 *461:C 6.50276e-05
2 *468:B 0.000410271
3 *465:A 0.000323796
4 *460:X 0.000376903
5 *30:26 0.000559279
6 *30:5 0.000784679
7 *461:C *37:34 0
8 *465:A *462:S 0
9 *465:A *465:B 0
10 *465:A *466:S 0
11 *465:A *482:A 0
12 *465:A *33:11 0
13 *465:A *65:8 0
14 *468:B *468:A 0
15 *468:B *498:A2 0
16 *468:B *502:A 0
17 *468:B *38:44 0
18 *468:B *67:24 0
19 *30:5 *474:A 0
20 *30:5 *482:A 0
21 *30:5 *37:34 0
22 *30:26 *67:22 0
23 *30:26 *67:24 0
24 *461:B *461:C 0
25 *473:A *30:5 0
26 *7:29 *468:B 0
27 *11:28 *468:B 0
28 *11:28 *30:26 0
*RES
1 *460:X *30:5 17.2286 
2 *30:5 *465:A 34.4071 
3 *30:5 *30:26 11.25 
4 *30:26 *468:B 28.5857 
5 *30:26 *461:C 19.6571 
*END

*D_NET *31 0.000709001
*CONN
*I *462:S I *D sky130_fd_sc_hd__mux2_1
*I *461:X O *D sky130_fd_sc_hd__or3_1
*CAP
1 *462:S 0.000354501
2 *461:X 0.000354501
3 *462:S *466:S 0
4 *462:S *481:A2 0
5 *462:S *519:A 0
6 *462:S *33:11 0
7 *462:S *38:32 0
8 *462:S *38:44 0
9 *462:S *67:20 0
10 *465:A *462:S 0
11 *11:15 *462:S 0
12 *11:28 *462:S 0
*RES
1 *461:X *462:S 45.8321 
*END

*D_NET *32 0.000758263
*CONN
*I *463:A I *D sky130_fd_sc_hd__clkbuf_1
*I *462:X O *D sky130_fd_sc_hd__mux2_1
*CAP
1 *463:A 0.000379131
2 *462:X 0.000379131
3 *463:A *62:7 0
4 *463:A *65:63 0
5 *80:DIODE *463:A 0
6 *1:9 *463:A 0
*RES
1 *462:X *463:A 44.7786 
*END

*D_NET *33 0.00123207
*CONN
*I *465:B I *D sky130_fd_sc_hd__nor2_1
*I *482:B I *D sky130_fd_sc_hd__and3_1
*I *464:Y O *D sky130_fd_sc_hd__nand2_1
*CAP
1 *465:B 0.000191874
2 *482:B 0
3 *464:Y 0.00042416
4 *33:11 0.000616034
5 *465:B *482:A 0
6 *465:B *65:8 0
7 *33:11 *464:A 0
8 *33:11 *501:A 0
9 *462:S *33:11 0
10 *465:A *465:B 0
11 *465:A *33:11 0
*RES
1 *464:Y *33:11 36.3893 
2 *33:11 *482:B 9.3 
3 *33:11 *465:B 13.3357 
*END

*D_NET *34 0.000620165
*CONN
*I *466:S I *D sky130_fd_sc_hd__mux2_1
*I *465:Y O *D sky130_fd_sc_hd__nor2_1
*CAP
1 *466:S 0.000310082
2 *465:Y 0.000310082
3 *466:S *461:A 0
4 *466:S *519:A 0
5 *466:S *38:44 0
6 *466:S *64:14 0
7 *462:S *466:S 0
8 *465:A *466:S 0
9 *11:28 *466:S 0
10 *21:13 *466:S 0
*RES
1 *465:Y *466:S 44.2429 
*END

*D_NET *35 0.000453016
*CONN
*I *467:A I *D sky130_fd_sc_hd__clkbuf_1
*I *466:X O *D sky130_fd_sc_hd__mux2_1
*CAP
1 *467:A 0.000226508
2 *466:X 0.000226508
3 *467:A *64:11 0
4 *467:A *78:10 0
5 *510:D *467:A 0
*RES
1 *466:X *467:A 41.6536 
*END

*D_NET *36 0.000289202
*CONN
*I *469:A I *D sky130_fd_sc_hd__clkbuf_4
*I *468:X O *D sky130_fd_sc_hd__or3b_1
*CAP
1 *469:A 0.000144601
2 *468:X 0.000144601
3 *2:15 *469:A 0
*RES
1 *468:X *469:A 21.6179 
*END

*D_NET *37 0.00605847
*CONN
*I *496:A I *D sky130_fd_sc_hd__and2_1
*I *494:A I *D sky130_fd_sc_hd__and2_1
*I *492:A I *D sky130_fd_sc_hd__and2_1
*I *473:B I *D sky130_fd_sc_hd__and3_1
*I *490:A I *D sky130_fd_sc_hd__and2_1
*I *470:Y O *D sky130_fd_sc_hd__inv_2
*CAP
1 *496:A 0.00021462
2 *494:A 0
3 *492:A 0
4 *473:B 0
5 *490:A 0.000167994
6 *470:Y 0.000678939
7 *37:34 0.000936783
8 *37:16 0.00113289
9 *37:14 0.000862904
10 *37:12 0.00100278
11 *37:11 0.00106155
12 *490:A *60:19 0
13 *490:A *60:28 0
14 *496:A *76:8 0
15 *37:11 *508:A 0
16 *37:11 *513:CLK 0
17 *37:11 *67:10 0
18 *37:12 *494:B 0
19 *37:12 *76:8 0
20 *37:14 *492:B 0
21 *37:14 *494:B 0
22 *37:14 *515:CLK 0
23 *37:14 *76:8 0
24 *37:14 *76:13 0
25 *37:16 *492:B 0
26 *37:16 *60:28 0
27 *37:34 *493:A 0
28 *37:34 *500:B 0
29 *37:34 *64:17 0
30 *37:34 *64:24 0
31 *37:34 *66:32 0
32 *82:DIODE *37:14 0
33 *461:B *37:34 0
34 *461:C *37:34 0
35 *509:D *37:34 0
36 *513:D *37:11 0
37 *515:D *37:14 0
38 *3:8 *37:14 0
39 *30:5 *37:34 0
*RES
1 *470:Y *37:11 32.5321 
2 *37:11 *37:12 4.375 
3 *37:12 *37:14 21.6786 
4 *37:14 *37:16 0.732143 
5 *37:16 *490:A 22.675 
6 *37:16 *37:34 46.875 
7 *37:34 *473:B 9.3 
8 *37:14 *492:A 18.3 
9 *37:12 *494:A 18.3 
10 *37:11 *496:A 23.8893 
*END

*D_NET *38 0.00383552
*CONN
*I *472:B I *D sky130_fd_sc_hd__nor2_1
*I *482:C I *D sky130_fd_sc_hd__and3_1
*I *499:A2 I *D sky130_fd_sc_hd__a21oi_4
*I *498:A2 I *D sky130_fd_sc_hd__o21ai_1
*I *481:A2 I *D sky130_fd_sc_hd__o221a_1
*I *471:X O *D sky130_fd_sc_hd__or2_2
*CAP
1 *472:B 0
2 *482:C 9.41189e-06
3 *499:A2 0
4 *498:A2 0.000547891
5 *481:A2 0.000347931
6 *471:X 0
7 *38:44 0.0009704
8 *38:32 0.000763624
9 *38:25 0.000590015
10 *38:4 0.000606243
11 *481:A2 *477:A_N 0
12 *481:A2 *479:B2 0
13 *481:A2 *480:C 0
14 *481:A2 *484:A1 0
15 *481:A2 *64:38 0
16 *481:A2 *67:20 0
17 *498:A2 *468:A 0
18 *498:A2 *498:B1 0
19 *498:A2 *499:B1 0
20 *498:A2 *519:A 0
21 *498:A2 *63:20 0
22 *38:25 *64:38 0
23 *38:25 *66:28 0
24 *38:25 *66:30 0
25 *38:25 *66:80 0
26 *38:32 *483:A2 0
27 *38:32 *65:14 0
28 *38:32 *66:80 0
29 *38:44 *519:A 0
30 *462:S *481:A2 0
31 *462:S *38:32 0
32 *462:S *38:44 0
33 *466:S *38:44 0
34 *468:B *498:A2 0
35 *468:B *38:44 0
36 *498:A1 *498:A2 0
37 *2:15 *498:A2 0
38 *11:15 *481:A2 0
39 *11:15 *38:32 0
40 *11:28 *38:32 0
41 *11:28 *38:44 0
*RES
1 *471:X *38:4 9.3 
2 *38:4 *481:A2 35.6214 
3 *38:4 *38:25 24.5714 
4 *38:25 *38:32 16.5357 
5 *38:32 *38:44 13.3897 
6 *38:44 *498:A2 30.6036 
7 *38:44 *499:A2 18.3 
8 *38:32 *482:C 18.4964 
9 *38:25 *472:B 9.3 
*END

*D_NET *39 0.000524456
*CONN
*I *473:C I *D sky130_fd_sc_hd__and3_1
*I *483:A2 I *D sky130_fd_sc_hd__o31a_1
*I *472:Y O *D sky130_fd_sc_hd__nor2_1
*CAP
1 *473:C 9.58086e-05
2 *483:A2 8.4707e-05
3 *472:Y 8.17123e-05
4 *39:5 0.000262228
5 *473:C *64:24 0
6 *473:C *66:28 0
7 *473:C *66:30 0
8 *39:5 *66:80 0
9 *473:A *473:C 0
10 *38:32 *483:A2 0
*RES
1 *472:Y *39:5 11.0679 
2 *39:5 *483:A2 11.0679 
3 *39:5 *473:C 29.7464 
*END

*D_NET *40 0.000796958
*CONN
*I *474:A I *D sky130_fd_sc_hd__buf_2
*I *473:X O *D sky130_fd_sc_hd__and3_1
*CAP
1 *474:A 0.000398479
2 *473:X 0.000398479
3 *474:A *458:A 0
4 *474:A *501:A 0
5 *30:5 *474:A 0
*RES
1 *473:X *474:A 45.725 
*END

*D_NET *41 0.00145375
*CONN
*I *486:A4 I *D sky130_fd_sc_hd__a41o_1
*I *479:A2 I *D sky130_fd_sc_hd__o221a_1
*I *475:X O *D sky130_fd_sc_hd__and2b_1
*CAP
1 *486:A4 0.000436162
2 *479:A2 0.000225685
3 *475:X 6.50276e-05
4 *41:5 0.000726874
5 *479:A2 *479:B1 0
6 *479:A2 *479:C1 0
7 *479:A2 *66:17 0
8 *486:A4 *475:A_N 0
9 *486:A4 *480:B 0
10 *486:A4 *480:C 0
11 *486:A4 *481:A1 0
12 *486:A4 *484:A1 0
13 *486:A4 *484:B1_N 0
14 *486:A4 *66:11 0
15 *41:5 *475:A_N 0
16 *485:A *486:A4 0
17 *11:15 *479:A2 0
*RES
1 *475:X *41:5 10.6571 
2 *41:5 *479:A2 32.6393 
3 *41:5 *486:A4 38.3 
*END

*D_NET *42 0.0012609
*CONN
*I *480:A_N I *D sky130_fd_sc_hd__and4b_1
*I *479:B1 I *D sky130_fd_sc_hd__o221a_1
*I *476:X O *D sky130_fd_sc_hd__and2b_1
*CAP
1 *480:A_N 0.00014539
2 *479:B1 0.00023992
3 *476:X 0.000245137
4 *42:7 0.000630448
5 *479:B1 *479:A1 0
6 *479:B1 *479:C1 0
7 *480:A_N *480:B 0
8 *480:A_N *66:11 0
9 *42:7 *476:B 0
10 *479:A2 *479:B1 0
11 *514:D *480:A_N 0
12 *11:6 *479:B1 0
13 *11:15 *479:B1 0
14 *11:73 *480:A_N 0
*RES
1 *476:X *42:7 23.3536 
2 *42:7 *479:B1 23.7643 
3 *42:7 *480:A_N 21.7107 
*END

*D_NET *43 0.000571092
*CONN
*I *479:B2 I *D sky130_fd_sc_hd__o221a_1
*I *477:X O *D sky130_fd_sc_hd__and2b_1
*CAP
1 *479:B2 0.000285546
2 *477:X 0.000285546
3 *479:B2 *477:A_N 0
4 *479:B2 *64:38 0
5 *481:A2 *479:B2 0
*RES
1 *477:X *479:B2 42.8857 
*END

*D_NET *44 0.0011397
*CONN
*I *479:C1 I *D sky130_fd_sc_hd__o221a_1
*I *478:Y O *D sky130_fd_sc_hd__nand2_1
*CAP
1 *479:C1 0.00056985
2 *478:Y 0.00056985
3 *479:C1 *520:A 0
4 *479:C1 *61:8 0
5 *479:C1 *67:17 0
6 *479:A2 *479:C1 0
7 *479:B1 *479:C1 0
*RES
1 *478:Y *479:C1 48.7607 
*END

*D_NET *45 0.000177504
*CONN
*I *481:B1 I *D sky130_fd_sc_hd__o221a_1
*I *479:X O *D sky130_fd_sc_hd__o221a_1
*CAP
1 *481:B1 8.87521e-05
2 *479:X 8.87521e-05
3 *481:B1 *49:11 0
*RES
1 *479:X *481:B1 38.7786 
*END

*D_NET *46 0.00023462
*CONN
*I *481:B2 I *D sky130_fd_sc_hd__o221a_1
*I *480:X O *D sky130_fd_sc_hd__and4b_1
*CAP
1 *481:B2 0.00011731
2 *480:X 0.00011731
3 *481:B2 *49:11 0
4 *477:B *481:B2 0
*RES
1 *480:X *481:B2 39.3143 
*END

*D_NET *47 0.000521446
*CONN
*I *484:A1 I *D sky130_fd_sc_hd__o21ba_1
*I *481:X O *D sky130_fd_sc_hd__o221a_1
*CAP
1 *484:A1 0.000260723
2 *481:X 0.000260723
3 *484:A1 *477:A_N 0
4 *484:A1 *480:C 0
5 *484:A1 *49:11 0
6 *481:A2 *484:A1 0
7 *485:A *484:A1 0
8 *486:A4 *484:A1 0
*RES
1 *481:X *484:A1 42.85 
*END

*D_NET *48 0.000216863
*CONN
*I *483:A3 I *D sky130_fd_sc_hd__o31a_1
*I *482:X O *D sky130_fd_sc_hd__and3_1
*CAP
1 *483:A3 0.000108431
2 *482:X 0.000108431
3 *483:A3 *482:A 0
4 *483:A3 *67:22 0
*RES
1 *482:X *483:A3 39.1893 
*END

*D_NET *49 0.00120651
*CONN
*I *484:A2 I *D sky130_fd_sc_hd__o21ba_1
*I *483:X O *D sky130_fd_sc_hd__o31a_1
*CAP
1 *484:A2 0
2 *483:X 0.000603257
3 *49:11 0.000603257
4 *49:11 *480:C 0
5 *49:11 *64:24 0
6 *49:11 *66:28 0
7 *49:11 *67:20 0
8 *481:B1 *49:11 0
9 *481:B2 *49:11 0
10 *484:A1 *49:11 0
11 *485:A *49:11 0
*RES
1 *483:X *49:11 42.5679 
2 *49:11 *484:A2 9.3 
*END

*D_NET *50 0.00028749
*CONN
*I *486:A3 I *D sky130_fd_sc_hd__a41o_1
*I *485:Y O *D sky130_fd_sc_hd__inv_2
*CAP
1 *486:A3 0.000143745
2 *485:Y 0.000143745
3 *486:A3 *77:9 0
4 *485:A *486:A3 0
*RES
1 *485:Y *486:A3 21.6 
*END

*D_NET *51 0.00270068
*CONN
*I *491:A I *D sky130_fd_sc_hd__clkbuf_1
*I *490:X O *D sky130_fd_sc_hd__and2_1
*CAP
1 *491:A 0
2 *490:X 0.00135034
3 *51:8 0.00135034
4 *51:8 *490:B 0
5 *51:8 *502:A 0
6 *51:8 *502:B 0
7 *51:8 *503:A 0
8 io_out[0] *51:8 0
9 io_out[5] *51:8 0
10 io_out[6] *51:8 0
11 *81:DIODE *51:8 0
12 *499:A1 *51:8 0
13 *7:29 *51:8 0
14 *21:13 *51:8 0
15 *28:14 *51:8 0
*RES
1 *490:X *51:8 47.5321 
2 *51:8 *491:A 18.3 
*END

*D_NET *52 0.000364011
*CONN
*I *493:A I *D sky130_fd_sc_hd__clkbuf_1
*I *492:X O *D sky130_fd_sc_hd__and2_1
*CAP
1 *493:A 0.000182006
2 *492:X 0.000182006
3 *493:A *487:A 0
4 *493:A *492:B 0
5 *493:A *60:28 0
6 *37:34 *493:A 0
*RES
1 *492:X *493:A 41.2071 
*END

*D_NET *53 0.00028749
*CONN
*I *495:A I *D sky130_fd_sc_hd__clkbuf_1
*I *494:X O *D sky130_fd_sc_hd__and2_1
*CAP
1 *495:A 0.000143745
2 *494:X 0.000143745
*RES
1 *494:X *495:A 21.6 
*END

*D_NET *54 0.000208773
*CONN
*I *497:A I *D sky130_fd_sc_hd__clkbuf_1
*I *496:X O *D sky130_fd_sc_hd__and2_1
*CAP
1 *497:A 0.000104386
2 *496:X 0.000104386
*RES
1 *496:X *497:A 20.7786 
*END

*D_NET *55 0.000600164
*CONN
*I *499:B1 I *D sky130_fd_sc_hd__a21oi_4
*I *498:Y O *D sky130_fd_sc_hd__o21ai_1
*CAP
1 *499:B1 0.000300082
2 *498:Y 0.000300082
3 *499:B1 *466:A0 0
4 *498:A2 *499:B1 0
5 *509:D *499:B1 0
6 *11:34 *499:B1 0
*RES
1 *498:Y *499:B1 43.6714 
*END

*D_NET *56 0.00109951
*CONN
*I *501:A I *D sky130_fd_sc_hd__buf_2
*I *500:X O *D sky130_fd_sc_hd__and4_1
*CAP
1 *501:A 0.000549754
2 *500:X 0.000549754
3 *501:A *458:A 0
4 *501:A *464:A 0
5 *501:A *65:38 0
6 io_out[6] *501:A 0
7 *474:A *501:A 0
8 *21:13 *501:A 0
9 *33:11 *501:A 0
*RES
1 *500:X *501:A 49.2429 
*END

*D_NET *57 0.000208773
*CONN
*I *503:A I *D sky130_fd_sc_hd__buf_2
*I *502:X O *D sky130_fd_sc_hd__and4_1
*CAP
1 *503:A 0.000104386
2 *502:X 0.000104386
3 *51:8 *503:A 0
*RES
1 *502:X *503:A 20.7786 
*END

*D_NET *58 0.000312674
*CONN
*I *505:A I *D sky130_fd_sc_hd__buf_2
*I *504:X O *D sky130_fd_sc_hd__and4b_1
*CAP
1 *505:A 0.000156337
2 *504:X 0.000156337
3 *505:A *468:A 0
4 *505:A *502:B 0
5 *505:A *502:C 0
6 *505:A *69:10 0
7 *7:29 *505:A 0
8 *28:10 *505:A 0
9 *28:14 *505:A 0
*RES
1 *504:X *505:A 40.6714 
*END

*D_NET *59 0.00269746
*CONN
*I *520:A I *D sky130_fd_sc_hd__clkbuf_16
*I *519:A I *D sky130_fd_sc_hd__clkbuf_16
*I *518:X O *D sky130_fd_sc_hd__clkbuf_16
*CAP
1 *520:A 0.000606175
2 *519:A 0.000742557
3 *518:X 0