*SPEF "ieee 1481-1999"
*DESIGN "wrapped_MC14500"
*DATE "11:11:11 Fri 11 11, 1111"
*VENDOR "OpenRCX"
*PROGRAM "Parallel Extraction"
*VERSION "1.0"
*DESIGN_FLOW "NAME_SCOPE LOCAL" "PIN_CAP NONE"
*DIVIDER /
*DELIMITER :
*BUS_DELIMITER []
*T_UNIT 1 NS
*C_UNIT 1 PF
*R_UNIT 1 OHM
*L_UNIT 1 HENRY

*NAME_MAP
*1 clk
*2 io_in[0]
*3 io_in[1]
*4 io_in[2]
*5 io_in[3]
*6 io_in[4]
*7 io_oeb
*8 io_out[0]
*9 io_out[1]
*10 io_out[2]
*11 io_out[3]
*12 io_out[4]
*13 io_out[5]
*14 io_out[6]
*15 io_out[7]
*16 net16
*17 rst
*20 _00_
*21 _01_
*22 _02_
*23 _03_
*24 _04_
*25 _05_
*26 _10_
*27 _11_
*28 _12_
*29 _13_
*30 _14_
*31 _15_
*32 _16_
*33 _17_
*34 _18_
*35 _19_
*36 _20_
*37 _21_
*38 _22_
*39 _23_
*40 _24_
*41 _25_
*42 _26_
*43 _27_
*44 _28_
*45 _29_
*46 _30_
*47 _31_
*48 clknet_0_clk
*49 clknet_1_0__leaf_clk
*50 clknet_1_1__leaf_clk
*51 mc14500\.IEN_l
*52 mc14500\.OEN_l
*53 mc14500\.instr\[0\]
*54 mc14500\.instr\[1\]
*55 mc14500\.instr\[2\]
*56 mc14500\.instr\[3\]
*57 mc14500\.skip
*58 net1
*59 net10
*60 net11
*61 net12
*62 net13
*63 net14
*64 net15
*65 net17
*66 net18
*67 net19
*68 net2
*69 net20
*70 net21
*71 net3
*72 net4
*73 net5
*74 net6
*75 net7
*76 net8
*77 net9
*78 ANTENNA_clkbuf_0_clk_A
*79 ANTENNA_input1_A
*80 ANTENNA_input2_A
*81 ANTENNA_input3_A
*82 ANTENNA_input4_A
*83 ANTENNA_input5_A
*84 ANTENNA_input6_A
*85 FILLER_0_101
*86 FILLER_0_11
*87 FILLER_0_19
*88 FILLER_0_25
*89 FILLER_0_29
*90 FILLER_0_3
*91 FILLER_0_33
*92 FILLER_0_40
*93 FILLER_0_46
*94 FILLER_0_53
*95 FILLER_0_57
*96 FILLER_0_66
*97 FILLER_0_72
*98 FILLER_0_79
*99 FILLER_0_83
*100 FILLER_0_85
*101 FILLER_0_93
*102 FILLER_10_15
*103 FILLER_10_19
*104 FILLER_10_26
*105 FILLER_10_29
*106 FILLER_10_3
*107 FILLER_10_51
*108 FILLER_10_55
*109 FILLER_10_65
*110 FILLER_10_77
*111 FILLER_10_83
*112 FILLER_10_85
*113 FILLER_10_97
*114 FILLER_11_15
*115 FILLER_11_3
*116 FILLER_11_40
*117 FILLER_11_54
*118 FILLER_11_57
*119 FILLER_11_67
*120 FILLER_11_79
*121 FILLER_11_91
*122 FILLER_12_101
*123 FILLER_12_15
*124 FILLER_12_21
*125 FILLER_12_25
*126 FILLER_12_29
*127 FILLER_12_3
*128 FILLER_12_41
*129 FILLER_12_48
*130 FILLER_12_61
*131 FILLER_12_73
*132 FILLER_12_81
*133 FILLER_12_85
*134 FILLER_12_93
*135 FILLER_13_101
*136 FILLER_13_15
*137 FILLER_13_27
*138 FILLER_13_3
*139 FILLER_13_39
*140 FILLER_13_47
*141 FILLER_13_54
*142 FILLER_13_57
*143 FILLER_13_65
*144 FILLER_13_77
*145 FILLER_13_89
*146 FILLER_14_15
*147 FILLER_14_27
*148 FILLER_14_29
*149 FILLER_14_3
*150 FILLER_14_41
*151 FILLER_14_53
*152 FILLER_14_58
*153 FILLER_14_66
*154 FILLER_14_74
*155 FILLER_14_82
*156 FILLER_14_85
*157 FILLER_14_97
*158 FILLER_15_15
*159 FILLER_15_27
*160 FILLER_15_3
*161 FILLER_15_45
*162 FILLER_15_53
*163 FILLER_15_57
*164 FILLER_15_67
*165 FILLER_15_79
*166 FILLER_15_91
*167 FILLER_16_15
*168 FILLER_16_27
*169 FILLER_16_29
*170 FILLER_16_3
*171 FILLER_16_33
*172 FILLER_16_50
*173 FILLER_16_57
*174 FILLER_16_69
*175 FILLER_16_81
*176 FILLER_16_85
*177 FILLER_16_97
*178 FILLER_17_102
*179 FILLER_17_15
*180 FILLER_17_27
*181 FILLER_17_3
*182 FILLER_17_46
*183 FILLER_17_54
*184 FILLER_17_57
*185 FILLER_17_62
*186 FILLER_17_66
*187 FILLER_17_72
*188 FILLER_17_84
*189 FILLER_17_96
*190 FILLER_18_15
*191 FILLER_18_27
*192 FILLER_18_29
*193 FILLER_18_3
*194 FILLER_18_41
*195 FILLER_18_53
*196 FILLER_18_65
*197 FILLER_18_77
*198 FILLER_18_83
*199 FILLER_18_85
*200 FILLER_18_97
*201 FILLER_19_101
*202 FILLER_19_15
*203 FILLER_19_27
*204 FILLER_19_3
*205 FILLER_19_39
*206 FILLER_19_51
*207 FILLER_19_55
*208 FILLER_19_57
*209 FILLER_19_69
*210 FILLER_19_81
*211 FILLER_19_89
*212 FILLER_19_93
*213 FILLER_1_101
*214 FILLER_1_12
*215 FILLER_1_3
*216 FILLER_1_36
*217 FILLER_1_48
*218 FILLER_1_57
*219 FILLER_1_66
*220 FILLER_1_7
*221 FILLER_1_78
*222 FILLER_1_86
*223 FILLER_1_91
*224 FILLER_20_15
*225 FILLER_20_27
*226 FILLER_20_29
*227 FILLER_20_3
*228 FILLER_20_41
*229 FILLER_20_53
*230 FILLER_20_65
*231 FILLER_20_77
*232 FILLER_20_83
*233 FILLER_20_85
*234 FILLER_20_97
*235 FILLER_21_101
*236 FILLER_21_15
*237 FILLER_21_27
*238 FILLER_21_3
*239 FILLER_21_39
*240 FILLER_21_51
*241 FILLER_21_55
*242 FILLER_21_57
*243 FILLER_21_69
*244 FILLER_21_81
*245 FILLER_21_93
*246 FILLER_22_15
*247 FILLER_22_27
*248 FILLER_22_29
*249 FILLER_22_3
*250 FILLER_22_41
*251 FILLER_22_53
*252 FILLER_22_65
*253 FILLER_22_77
*254 FILLER_22_83
*255 FILLER_22_85
*256 FILLER_22_97
*257 FILLER_23_101
*258 FILLER_23_15
*259 FILLER_23_27
*260 FILLER_23_3
*261 FILLER_23_39
*262 FILLER_23_51
*263 FILLER_23_55
*264 FILLER_23_57
*265 FILLER_23_69
*266 FILLER_23_81
*267 FILLER_23_93
*268 FILLER_24_101
*269 FILLER_24_15
*270 FILLER_24_27
*271 FILLER_24_29
*272 FILLER_24_3
*273 FILLER_24_41
*274 FILLER_24_53
*275 FILLER_24_57
*276 FILLER_24_69
*277 FILLER_24_77
*278 FILLER_24_82
*279 FILLER_24_85
*280 FILLER_24_91
*281 FILLER_2_101
*282 FILLER_2_15
*283 FILLER_2_24
*284 FILLER_2_29
*285 FILLER_2_3
*286 FILLER_2_37
*287 FILLER_2_41
*288 FILLER_2_51
*289 FILLER_2_63
*290 FILLER_2_74
*291 FILLER_2_82
*292 FILLER_2_85
*293 FILLER_2_97
*294 FILLER_3_11
*295 FILLER_3_17
*296 FILLER_3_3
*297 FILLER_3_37
*298 FILLER_3_50
*299 FILLER_3_57
*300 FILLER_3_64
*301 FILLER_3_71
*302 FILLER_3_83
*303 FILLER_3_95
*304 FILLER_4_15
*305 FILLER_4_19
*306 FILLER_4_23
*307 FILLER_4_27
*308 FILLER_4_29
*309 FILLER_4_3
*310 FILLER_4_35
*311 FILLER_4_44
*312 FILLER_4_51
*313 FILLER_4_60
*314 FILLER_4_72
*315 FILLER_4_85
*316 FILLER_4_97
*317 FILLER_5_101
*318 FILLER_5_15
*319 FILLER_5_23
*320 FILLER_5_3
*321 FILLER_5_43
*322 FILLER_5_54
*323 FILLER_5_57
*324 FILLER_5_64
*325 FILLER_5_77
*326 FILLER_5_89
*327 FILLER_6_101
*328 FILLER_6_15
*329 FILLER_6_27
*330 FILLER_6_29
*331 FILLER_6_3
*332 FILLER_6_48
*333 FILLER_6_63
*334 FILLER_6_72
*335 FILLER_6_81
*336 FILLER_6_85
*337 FILLER_6_93
*338 FILLER_7_102
*339 FILLER_7_15
*340 FILLER_7_27
*341 FILLER_7_3
*342 FILLER_7_39
*343 FILLER_7_51
*344 FILLER_7_55
*345 FILLER_7_57
*346 FILLER_7_62
*347 FILLER_7_74
*348 FILLER_7_86
*349 FILLER_7_98
*350 FILLER_8_15
*351 FILLER_8_27
*352 FILLER_8_29
*353 FILLER_8_3
*354 FILLER_8_47
*355 FILLER_8_55
*356 FILLER_8_60
*357 FILLER_8_72
*358 FILLER_8_85
*359 FILLER_8_97
*360 FILLER_9_102
*361 FILLER_9_15
*362 FILLER_9_3
*363 FILLER_9_36
*364 FILLER_9_49
*365 FILLER_9_55
*366 FILLER_9_57
*367 FILLER_9_62
*368 FILLER_9_74
*369 FILLER_9_86
*370 FILLER_9_98
*371 PHY_0
*372 PHY_1
*373 PHY_10
*374 PHY_11
*375 PHY_12
*376 PHY_13
*377 PHY_14
*378 PHY_15
*379 PHY_16
*380 PHY_17
*381 PHY_18
*382 PHY_19
*383 PHY_2
*384 PHY_20
*385 PHY_21
*386 PHY_22
*387 PHY_23
*388 PHY_24
*389 PHY_25
*390 PHY_26
*391 PHY_27
*392 PHY_28
*393 PHY_29
*394 PHY_3
*395 PHY_30
*396 PHY_31
*397 PHY_32
*398 PHY_33
*399 PHY_34
*400 PHY_35
*401 PHY_36
*402 PHY_37
*403 PHY_38
*404 PHY_39
*405 PHY_4
*406 PHY_40
*407 PHY_41
*408 PHY_42
*409 PHY_43
*410 PHY_44
*411 PHY_45
*412 PHY_46
*413 PHY_47
*414 PHY_48
*415 PHY_49
*416 PHY_5
*417 PHY_6
*418 PHY_7
*419 PHY_8
*420 PHY_9
*421 TAP_50
*422 TAP_51
*423 TAP_52
*424 TAP_53
*425 TAP_54
*426 TAP_55
*427 TAP_56
*428 TAP_57
*429 TAP_58
*430 TAP_59
*431 TAP_60
*432 TAP_61
*433 TAP_62
*434 TAP_63
*435 TAP_64
*436 TAP_65
*437 TAP_66
*438 TAP_67
*439 TAP_68
*440 TAP_69
*441 TAP_70
*442 TAP_71
*443 TAP_72
*444 TAP_73
*445 TAP_74
*446 TAP_75
*447 TAP_76
*448 TAP_77
*449 TAP_78
*450 TAP_79
*451 TAP_80
*452 TAP_81
*453 TAP_82
*454 TAP_83
*455 TAP_84
*456 TAP_85
*457 TAP_86
*458 TAP_87
*459 TAP_88
*460 TAP_89
*461 _32_
*462 _33_
*463 _34_
*464 _35_
*465 _36__1
*466 _36__2
*467 _37_
*468 _38_
*469 _39_
*470 _40_
*471 _41_
*472 _42_
*473 _43_
*474 _44_
*475 _45_
*476 _46_
*477 _47_
*478 _48_
*479 _49_
*480 _50_
*481 _51_
*482 _52_
*483 _53_
*484 _54_
*485 _55_
*486 _56_
*487 _57_
*488 _58_
*489 _59_
*490 _60_
*491 _61_
*492 _62_
*493 _63_
*494 _64_
*495 _65_
*496 _66_
*497 _67_
*498 _68__3
*499 _69__4
*500 _70__5
*501 _71_
*502 _72_
*503 _73_
*504 _74_
*505 _75_
*506 _76_
*507 _77_
*508 _78_
*509 _80_
*510 clkbuf_0_clk
*511 clkbuf_1_0__f_clk
*512 clkbuf_1_1__f_clk
*513 input1
*514 input2
*515 input3
*516 input4
*517 input5
*518 input6
*519 output10
*520 output11
*521 output12
*522 output13
*523 output14
*524 output15
*525 output7
*526 output8
*527 output9
*528 wrapped_MC14500_16

*PORTS
clk I
io_in[0] I
io_in[1] I
io_in[2] I
io_in[3] I
io_in[4] I
io_oeb O
io_out[0] O
io_out[1] O
io_out[2] O
io_out[3] O
io_out[4] O
io_out[5] O
io_out[6] O
io_out[7] O
io_out[8] O
rst I

*D_NET *1 0.00390062
*CONN
*P clk I
*I *78:DIODE I *D sky130_fd_sc_hd__diode_2
*I *510:A I *D sky130_fd_sc_hd__clkbuf_16
*CAP
1 clk 0.00162988
2 *78:DIODE 0
3 *510:A 0.000320432
4 *1:9 0.000320432
5 *1:7 0.00162988
6 *510:A *507:CLK 0
7 *510:A *50:9 0
8 *510:A *50:18 0
9 *1:7 *506:CLK 0
*RES
1 clk *1:7 42.4464 
2 *1:7 *1:9 9 
3 *1:9 *510:A 15.925 
4 *1:9 *78:DIODE 9.3 
*END

*D_NET *2 0.00114425
*CONN
*P io_in[0] I
*I *79:DIODE I *D sky130_fd_sc_hd__diode_2
*I *513:A I *D sky130_fd_sc_hd__clkbuf_2
*CAP
1 io_in[0] 0.000305025
2 *79:DIODE 0.000267101
3 *513:A 0
4 *2:8 0.000572126
5 *79:DIODE io_out[8] 0
6 *79:DIODE *75:11 0
7 *2:8 io_out[8] 0
*RES
1 io_in[0] *2:8 6.66405 
2 *2:8 *513:A 18.3 
3 *2:8 *79:DIODE 24.3714 
*END

*D_NET *3 0.000905287
*CONN
*P io_in[1] I
*I *514:A I *D sky130_fd_sc_hd__clkbuf_2
*I *80:DIODE I *D sky130_fd_sc_hd__diode_2
*CAP
1 io_in[1] 0.000288363
2 *514:A 0
3 *80:DIODE 0.00016428
4 *3:12 0.000452643
5 *80:DIODE *490:B 0
*RES
1 io_in[1] *3:12 13.7991 
2 *3:12 *80:DIODE 12.7286 
3 *3:12 *514:A 9.3 
*END

*D_NET *4 0.000734278
*CONN
*P io_in[2] I
*I *515:A I *D sky130_fd_sc_hd__clkbuf_2
*I *81:DIODE I *D sky130_fd_sc_hd__diode_2
*CAP
1 io_in[2] 0.000223394
2 *515:A 0
3 *81:DIODE 0.000143745
4 *4:10 0.000367139
5 *81:DIODE *71:10 0
*RES
1 io_in[2] *4:10 13.5391 
2 *4:10 *81:DIODE 12.3 
3 *4:10 *515:A 9.3 
*END

*D_NET *5 0.000850707
*CONN
*P io_in[3] I
*I *516:A I *D sky130_fd_sc_hd__clkbuf_2
*I *82:DIODE I *D sky130_fd_sc_hd__diode_2
*CAP
1 io_in[3] 0.000281609
2 *516:A 0
3 *82:DIODE 0.000143745
4 *5:10 0.000425354
5 *82:DIODE *72:10 0
*RES
1 io_in[3] *5:10 15.0569 
2 *5:10 *82:DIODE 12.3 
3 *5:10 *516:A 9.3 
*END

*D_NET *6 0.000736113
*CONN
*P io_in[4] I
*I *517:A I *D sky130_fd_sc_hd__clkbuf_2
*I *83:DIODE I *D sky130_fd_sc_hd__diode_2
*CAP
1 io_in[4] 0.000305025
2 *517:A 0
3 *83:DIODE 6.30319e-05
4 *6:8 0.000368057
*RES
1 io_in[4] *6:8 6.66405 
2 *6:8 *83:DIODE 19.9429 
3 *6:8 *517:A 18.3 
*END

*D_NET *7 0.00128613
*CONN
*P io_oeb O
*I *525:X O *D sky130_fd_sc_hd__buf_4
*CAP
1 io_oeb 0.000643064
2 *525:X 0.000643064
*RES
1 *525:X io_oeb 33.6929 
*END

*D_NET *8 0.00107631
*CONN
*P io_out[0] O
*I *526:X O *D sky130_fd_sc_hd__buf_4
*CAP
1 io_out[0] 0.000538154
2 *526:X 0.000538154
*RES
1 *526:X io_out[0] 30.9607 
*END

*D_NET *9 0.000790509
*CONN
*P io_out[1] O
*I *527:X O *D sky130_fd_sc_hd__clkbuf_2
*CAP
1 io_out[1] 0.000395255
2 *527:X 0.000395255
3 io_out[1] *76:11 0
*RES
1 *527:X io_out[1] 28.4607 
*END

*D_NET *10 0.000604002
*CONN
*P io_out[2] O
*I *519:X O *D sky130_fd_sc_hd__clkbuf_2
*CAP
1 io_out[2] 0.000302001
2 *519:X 0.000302001
*RES
1 *519:X io_out[2] 26.0321 
*END

*D_NET *11 0.00068272
*CONN
*P io_out[3] O
*I *520:X O *D sky130_fd_sc_hd__buf_4
*CAP
1 io_out[3] 0.00034136
2 *520:X 0.00034136
*RES
1 *520:X io_out[3] 26.8536 
*END

*D_NET *12 0.00068272
*CONN
*P io_out[4] O
*I *521:X O *D sky130_fd_sc_hd__buf_4
*CAP
1 io_out[4] 0.00034136
2 *521:X 0.00034136
*RES
1 *521:X io_out[4] 26.8536 
*END

*D_NET *13 0.000722079
*CONN
*P io_out[5] O
*I *522:X O *D sky130_fd_sc_hd__buf_4
*CAP
1 io_out[5] 0.000361039
2 *522:X 0.000361039
*RES
1 *522:X io_out[5] 27.2643 
*END

*D_NET *14 0.000722079
*CONN
*P io_out[6] O
*I *523:X O *D sky130_fd_sc_hd__buf_4
*CAP
1 io_out[6] 0.000361039
2 *523:X 0.000361039
3 io_out[6] *58:10 0
*RES
1 *523:X io_out[6] 27.2643 
*END

*D_NET *15 0.000761437
*CONN
*P io_out[7] O
*I *524:X O *D sky130_fd_sc_hd__buf_4
*CAP
1 io_out[7] 0.000380719
2 *524:X 0.000380719
3 io_out[7] *58:10 0
*RES
1 *524:X io_out[7] 27.675 
*END

*D_NET *16 0.000948992
*CONN
*P io_out[8] O
*I *528:LO O *D sky130_fd_sc_hd__conb_1
*CAP
1 io_out[8] 0.000474496
2 *528:LO 0.000474496
3 *79:DIODE io_out[8] 0
4 *2:8 io_out[8] 0
*RES
1 *528:LO io_out[8] 30.6571 
*END

*D_NET *17 0.000988356
*CONN
*P rst I
*I *84:DIODE I *D sky130_fd_sc_hd__diode_2
*I *518:A I *D sky130_fd_sc_hd__clkbuf_2
*CAP
1 rst 0.000287989
2 *84:DIODE 8.32096e-05
3 *518:A 0.00012298
4 *17:5 0.000494178
*RES
1 rst *17:5 7.5 
2 *17:5 *518:A 21.1036 
3 *17:5 *84:DIODE 20.0679 
*END

*D_NET *20 0.00139553
*CONN
*I *506:D I *D sky130_fd_sc_hd__dfxtp_4
*I *486:X O *D sky130_fd_sc_hd__o21ba_1
*CAP
1 *506:D 0.000697763
2 *486:X 0.000697763
3 *506:D *479:A_N 0
4 *506:D *482:C 0
5 *506:D *482:D 0
6 *506:D *53:11 0
7 *506:D *60:7 0
*RES
1 *486:X *506:D 33.1 
*END

*D_NET *21 0.00162623
*CONN
*I *502:D I *D sky130_fd_sc_hd__dfxtp_2
*I *489:X O *D sky130_fd_sc_hd__and2_1
*CAP
1 *502:D 0
2 *489:X 0.000813113
3 *21:11 0.000813113
4 *21:11 *477:C 0
5 *21:11 *485:A1 0
6 *21:11 *485:B1 0
7 *21:11 *22:13 0
8 *21:11 *53:43 0
9 *21:11 *56:30 0
*RES
1 *489:X *21:11 44.5366 
2 *21:11 *502:D 9.3 
*END

*D_NET *22 0.00202149
*CONN
*I *503:D I *D sky130_fd_sc_hd__dfxtp_2
*I *490:X O *D sky130_fd_sc_hd__and2_1
*CAP
1 *503:D 0
2 *490:X 0.00101075
3 *22:13 0.00101075
4 *22:13 *468:A 0
5 *22:13 *468:B 0
6 *22:13 *477:A 0
7 *22:13 *489:A 0
8 *22:13 *502:CLK 0
9 *22:13 *37:7 0
10 *22:13 *54:7 0
11 *21:11 *22:13 0
*RES
1 *490:X *22:13 48.6616 
2 *22:13 *503:D 9.3 
*END

*D_NET *23 0.00166574
*CONN
*I *504:D I *D sky130_fd_sc_hd__dfxtp_2
*I *491:X O *D sky130_fd_sc_hd__and2_1
*CAP
1 *504:D 0
2 *491:X 0.000832872
3 *23:9 0.000832872
4 *23:9 *486:B1_N 0
5 *23:9 *487:A4 0
6 *23:9 *508:D 0
7 *23:9 *30:14 0
8 *23:9 *55:5 0
9 *23:9 *56:8 0
10 *23:9 *56:18 0
11 *23:9 *74:9 0
*RES
1 *491:X *23:9 45.0187 
2 *23:9 *504:D 9.3 
*END

*D_NET *24 0.00139339
*CONN
*I *505:D I *D sky130_fd_sc_hd__dfxtp_2
*I *492:X O *D sky130_fd_sc_hd__and2_1
*CAP
1 *505:D 0.000696693
2 *492:X 0.000696693
3 *505:D *30:5 0
4 *505:D *56:8 0
*RES
1 *492:X *505:D 33.1402 
*END

*D_NET *25 0.000924038
*CONN
*I *508:D I *D sky130_fd_sc_hd__dfxtp_1
*I *487:X O *D sky130_fd_sc_hd__a41o_1
*CAP
1 *508:D 0.000462019
2 *487:X 0.000462019
3 *508:D *487:A2 0
4 *508:D *500:A 0
5 *508:D *55:5 0
6 *23:9 *508:D 0
*RES
1 *487:X *508:D 46.5687 
*END

*D_NET *26 0.00075509
*CONN
*I *501:D I *D sky130_fd_sc_hd__dfxtp_1
*I *473:X O *D sky130_fd_sc_hd__mux2_1
*CAP
1 *501:D 0.000377545
2 *473:X 0.000377545
*RES
1 *473:X *501:D 26.4795 
*END

*D_NET *27 0.000413441
*CONN
*I *507:D I *D sky130_fd_sc_hd__dfxtp_1
*I *470:X O *D sky130_fd_sc_hd__mux2_1
*CAP
1 *507:D 0.00020672
2 *470:X 0.00020672
3 *507:D *507:CLK 0
4 *507:D *511:A 0
*RES
1 *470:X *507:D 41.3009 
*END

*D_NET *28 0.00198844
*CONN
*I *477:A I *D sky130_fd_sc_hd__and3_1
*I *468:A I *D sky130_fd_sc_hd__or2_1
*I *483:C1 I *D sky130_fd_sc_hd__o221a_1
*I *461:Y O *D sky130_fd_sc_hd__inv_2
*CAP
1 *477:A 0.000227061
2 *468:A 0.000203639
3 *483:C1 0.000259917
4 *461:Y 0
5 *28:20 0.000734301
6 *28:4 0.000563518
7 *468:A *468:B 0
8 *468:A *37:7 0
9 *477:A *56:30 0
10 *483:C1 *34:11 0
11 *483:C1 *54:66 0
12 *483:C1 *73:24 0
13 *28:20 *461:A 0
14 *28:20 *483:A2 0
15 *28:20 *485:A3 0
16 *28:20 *486:A2 0
17 *28:20 *34:11 0
18 *28:20 *38:8 0
19 *28:20 *53:43 0
20 *28:20 *53:45 0
21 *28:20 *55:22 0
22 *28:20 *56:28 0
23 *22:13 *468:A 0
24 *22:13 *477:A 0
*RES
1 *461:Y *28:4 9.3 
2 *28:4 *483:C1 33.8357 
3 *28:4 *28:20 25.75 
4 *28:20 *468:A 13.55 
5 *28:20 *477:A 32.55 
*END

*D_NET *29 0.000772928
*CONN
*I *469:B I *D sky130_fd_sc_hd__or3_1
*I *497:B I *D sky130_fd_sc_hd__and4b_1
*I *496:D I *D sky130_fd_sc_hd__and4_1
*I *462:Y O *D sky130_fd_sc_hd__inv_2
*CAP
1 *469:B 0
2 *497:B 0
3 *496:D 0.000120054
4 *462:Y 0.000121071
5 *29:10 0.000265393
6 *29:5 0.00026641
7 *496:D *496:C 0
8 *496:D *75:11 0
9 *29:5 *54:39 0
10 *29:10 *469:C 0
11 *29:10 *496:C 0
12 *29:10 *53:49 0
13 *29:10 *54:39 0
*RES
1 *462:Y *29:5 11.8893 
2 *29:5 *29:10 12.4107 
3 *29:10 *496:D 21.1929 
4 *29:10 *497:B 18.3 
5 *29:5 *469:B 9.3 
*END

*D_NET *30 0.00320948
*CONN
*I *491:A I *D sky130_fd_sc_hd__and2_1
*I *490:A I *D sky130_fd_sc_hd__and2_1
*I *489:A I *D sky130_fd_sc_hd__and2_1
*I *477:B I *D sky130_fd_sc_hd__and3_1
*I *492:A I *D sky130_fd_sc_hd__and2_1
*I *463:Y O *D sky130_fd_sc_hd__inv_2
*CAP
1 *491:A 0
2 *490:A 0.000101392
3 *489:A 9.80534e-05
4 *477:B 6.20329e-05
5 *492:A 0
6 *463:Y 0.000222463
7 *30:27 0.000299553
8 *30:18 0.000877999
9 *30:14 0.00102069
10 *30:5 0.000527297
11 *477:B *477:C 0
12 *477:B *63:10 0
13 *489:A *58:10 0
14 *489:A *63:10 0
15 *30:5 *56:8 0
16 *30:14 *56:8 0
17 *30:14 *56:18 0
18 *30:18 *486:A1 0
19 *30:18 *486:A2 0
20 *30:18 *56:18 0
21 *30:18 *56:28 0
22 *30:18 *71:10 0
23 *30:27 *477:C 0
24 *30:27 *63:10 0
25 *505:D *30:5 0
26 *22:13 *489:A 0
27 *23:9 *30:14 0
*RES
1 *463:Y *30:5 13.9429 
2 *30:5 *492:A 9.3 
3 *30:5 *30:14 16.9464 
4 *30:14 *30:18 27.6429 
5 *30:18 *477:B 10.6571 
6 *30:18 *30:27 2.08929 
7 *30:27 *489:A 29.8536 
8 *30:27 *490:A 11.4786 
9 *30:14 *491:A 18.3 
*END

*D_NET *31 0.000295581
*CONN
*I *487:A3 I *D sky130_fd_sc_hd__a41o_1
*I *464:Y O *D sky130_fd_sc_hd__inv_2
*CAP
1 *487:A3 0.00014779
2 *464:Y 0.00014779
3 *487:A3 *464:A 0
4 *487:A3 *486:B1_N 0
5 *487:A3 *487:A4 0
6 *487:A3 *56:18 0
*RES
1 *464:Y *487:A3 40.0107 
*END

*D_NET *32 0.00104169
*CONN
*I *481:A2 I *D sky130_fd_sc_hd__o221a_1
*I *487:A4 I *D sky130_fd_sc_hd__a41o_1
*I *467:X O *D sky130_fd_sc_hd__and2b_1
*CAP
1 *481:A2 0
2 *487:A4 0.000337743
3 *467:X 0.000183104
4 *32:5 0.000520847
5 *487:A4 *464:A 0
6 *487:A4 *479:A_N 0
7 *487:A4 *486:B1_N 0
8 *32:5 *467:B 0
9 *32:5 *481:A1 0
10 *32:5 *481:B1 0
11 *487:A3 *487:A4 0
12 *23:9 *487:A4 0
*RES
1 *467:X *32:5 13.1214 
2 *32:5 *487:A4 35.7643 
3 *32:5 *481:A2 9.3 
*END

*D_NET *33 0.00156719
*CONN
*I *472:A I *D sky130_fd_sc_hd__nor2_1
*I *469:C I *D sky130_fd_sc_hd__or3_1
*I *474:B I *D sky130_fd_sc_hd__or3b_4
*I *468:X O *D sky130_fd_sc_hd__or2_1
*CAP
1 *472:A 0.000181821
2 *469:C 0.000321715
3 *474:B 0.00010971
4 *468:X 0.000121322
5 *33:10 0.000480452
6 *33:8 0.000352169
7 *469:C *462:A 0
8 *469:C *34:11 0
9 *472:A *472:B 0
10 *472:A *473:S 0
11 *472:A *474:A 0
12 *472:A *54:35 0
13 *474:B *473:A0 0
14 *474:B *473:S 0
15 *474:B *55:35 0
16 *33:8 *473:A1 0
17 *33:8 *54:10 0
18 *33:8 *55:35 0
19 *33:10 *473:S 0
20 *33:10 *55:35 0
21 *29:10 *469:C 0
*RES
1 *468:X *33:8 21.3893 
2 *33:8 *33:10 1.33929 
3 *33:10 *474:B 21.1571 
4 *33:10 *469:C 25.0143 
5 *33:8 *472:A 22.1571 
*END

*D_NET *34 0.00155973
*CONN
*I *470:S I *D sky130_fd_sc_hd__mux2_1
*I *469:X O *D sky130_fd_sc_hd__or3_1
*CAP
1 *470:S 0
2 *469:X 0.000779866
3 *34:11 0.000779866
4 *34:11 *480:A 0
5 *34:11 *483:A2 0
6 *34:11 *485:A3 0
7 *34:11 *37:8 0
8 *34:11 *37:40 0
9 *34:11 *38:8 0
10 *34:11 *51:17 0
11 *34:11 *53:45 0
12 *34:11 *54:66 0
13 *34:11 *55:35 0
14 *469:C *34:11 0
15 *483:C1 *34:11 0
16 *28:20 *34:11 0
*RES
1 *469:X *34:11 46.2643 
2 *34:11 *470:S 9.3 
*END

*D_NET *35 0.000680223
*CONN
*I *484:B I *D sky130_fd_sc_hd__and3_1
*I *472:B I *D sky130_fd_sc_hd__nor2_1
*I *471:Y O *D sky130_fd_sc_hd__nand2_1
*CAP
1 *484:B 0.000161927
2 *472:B 0.000178184
3 *471:Y 0
4 *35:4 0.000340111
5 *472:B *474:A 0
6 *484:B *471:A 0
7 *484:B *54:35 0
8 *472:A *472:B 0
*RES
1 *471:Y *35:4 9.3 
2 *35:4 *472:B 13.05 
3 *35:4 *484:B 12.7107 
*END

*D_NET *36 0.000358253
*CONN
*I *473:S I *D sky130_fd_sc_hd__mux2_1
*I *472:Y O *D sky130_fd_sc_hd__nor2_1
*CAP
1 *473:S 0.000179126
2 *472:Y 0.000179126
3 *473:S *473:A0 0
4 *473:S *473:A1 0
5 *472:A *473:S 0
6 *474:B *473:S 0
7 *33:10 *473:S 0
*RES
1 *472:Y *473:S 40.725 
*END

*D_NET *37 0.00276986
*CONN
*I *476:B I *D sky130_fd_sc_hd__nor2_1
*I *483:A2 I *D sky130_fd_sc_hd__o221a_1
*I *494:A2 I *D sky130_fd_sc_hd__a21oi_1
*I *493:A2 I *D sky130_fd_sc_hd__o21ai_1
*I *484:C I *D sky130_fd_sc_hd__and3_1
*I *475:X O *D sky130_fd_sc_hd__or2_2
*CAP
1 *476:B 2.26741e-05
2 *483:A2 0.000330019
3 *494:A2 8.22826e-06
4 *493:A2 0.000162165
5 *484:C 2.90913e-05
6 *475:X 6.50276e-05
7 *37:40 0.000586811
8 *37:22 0.000577901
9 *37:8 0.000562697
10 *37:7 0.000425244
11 *476:B *55:28 0
12 *483:A2 *55:15 0
13 *483:A2 *55:22 0
14 *483:A2 *56:18 0
15 *483:A2 *73:24 0
16 *484:C *54:35 0
17 *493:A2 *494:B1 0
18 *493:A2 *511:A 0
19 *37:8 *55:30 0
20 *37:40 *54:66 0
21 *37:40 *55:28 0
22 *468:A *37:7 0
23 *22:13 *37:7 0
24 *28:20 *483:A2 0
25 *34:11 *483:A2 0
26 *34:11 *37:8 0
27 *34:11 *37:40 0
*RES
1 *475:X *37:7 19.6571 
2 *37:7 *37:8 3.16071 
3 *37:8 *484:C 18.9071 
4 *37:8 *37:22 8.45247 
5 *37:22 *493:A2 22.5232 
6 *37:22 *494:A2 18.5768 
7 *37:7 *37:40 14.9286 
8 *37:40 *483:A2 35.4786 
9 *37:40 *476:B 9.83571 
*END

*D_NET *38 0.000632486
*CONN
*I *485:A2 I *D sky130_fd_sc_hd__o31a_1
*I *477:C I *D sky130_fd_sc_hd__and3_1
*I *476:Y O *D sky130_fd_sc_hd__nor2_1
*CAP
1 *485:A2 0
2 *477:C 0.000264816
3 *476:Y 5.14266e-05
4 *38:8 0.000316243
5 *477:C *485:A1 0
6 *477:C *53:43 0
7 *477:B *477:C 0
8 *21:11 *477:C 0
9 *28:20 *38:8 0
10 *30:27 *477:C 0
11 *34:11 *38:8 0
*RES
1 *476:Y *38:8 28.6393 
2 *38:8 *477:C 14.8893 
3 *38:8 *485:A2 9.3 
*END

*D_NET *39 0.000961637
*CONN
*I *481:B1 I *D sky130_fd_sc_hd__o221a_1
*I *482:A_N I *D sky130_fd_sc_hd__and4b_1
*I *478:X O *D sky130_fd_sc_hd__and2b_1
*CAP
1 *481:B1 0.000262677
2 *482:A_N 8.87966e-05
3 *478:X 0.000129345
4 *39:8 0.000480819
5 *481:B1 *467:B 0
6 *481:B1 *481:A1 0
7 *481:B1 *481:B2 0
8 *481:B1 *483:B1 0
9 *482:A_N *467:A_N 0
10 *482:A_N *53:8 0
11 *482:A_N *54:66 0
12 *39:8 *478:B 0
13 *39:8 *54:66 0
14 *39:8 *60:47 0
15 *32:5 *481:B1 0
*RES
1 *478:X *39:8 21.4964 
2 *39:8 *482:A_N 20.55 
3 *39:8 *481:B1 23.7821 
*END

*D_NET *40 0.000216863
*CONN
*I *481:B2 I *D sky130_fd_sc_hd__o221a_1
*I *479:X O *D sky130_fd_sc_hd__and2b_1
*CAP
1 *481:B2 0.000108431
2 *479:X 0.000108431
3 *481:B2 *479:A_N 0
4 *481:B2 *486:B1_N 0
5 *481:B1 *481:B2 0
*RES
1 *479:X *481:B2 39.1893 
*END

*D_NET *41 0.000499181
*CONN
*I *481:C1 I *D sky130_fd_sc_hd__o221a_1
*I *480:Y O *D sky130_fd_sc_hd__nand2_1
*CAP
1 *481:C1 0.00024959
2 *480:Y 0.00024959
3 *481:C1 *479:A_N 0
4 *481:C1 *486:A2 0
5 *481:C1 *486:B1_N 0
6 *481:C1 *55:22 0
7 *481:C1 *56:18 0
*RES
1 *480:Y *481:C1 43.1 
*END

*D_NET *42 0.000583982
*CONN
*I *483:B1 I *D sky130_fd_sc_hd__o221a_1
*I *481:X O *D sky130_fd_sc_hd__o221a_1
*CAP
1 *483:B1 0.000291991
2 *481:X 0.000291991
3 *483:B1 *56:18 0
4 *483:B1 *73:24 0
5 *481:B1 *483:B1 0
*RES
1 *481:X *483:B1 43.5643 
*END

*D_NET *43 0.000374127
*CONN
*I *483:B2 I *D sky130_fd_sc_hd__o221a_1
*I *482:X O *D sky130_fd_sc_hd__and4b_1
*CAP
1 *483:B2 0.000187063
2 *482:X 0.000187063
3 *483:B2 *55:15 0
*RES
1 *482:X *483:B2 40.8321 
*END

*D_NET *44 0.000348629
*CONN
*I *486:A1 I *D sky130_fd_sc_hd__o21ba_1
*I *483:X O *D sky130_fd_sc_hd__o221a_1
*CAP
1 *486:A1 0.000174315
2 *483:X 0.000174315
3 *486:A1 *486:A2 0
4 *486:A1 *73:11 0
5 *30:18 *486:A1 0
*RES
1 *483:X *486:A1 40.5643 
*END

*D_NET *45 0.000364011
*CONN
*I *485:A3 I *D sky130_fd_sc_hd__o31a_1
*I *484:X O *D sky130_fd_sc_hd__and3_1
*CAP
1 *485:A3 0.000182006
2 *484:X 0.000182006
3 *485:A3 *471:A 0
4 *485:A3 *53:45 0
5 *28:20 *485:A3 0
6 *34:11 *485:A3 0
*RES
1 *484:X *485:A3 41.2071 
*END

*D_NET *46 0.000986205
*CONN
*I *486:A2 I *D sky130_fd_sc_hd__o21ba_1
*I *485:X O *D sky130_fd_sc_hd__o31a_1
*CAP
1 *486:A2 0.000493102
2 *485:X 0.000493102
3 *486:A2 *486:B1_N 0
4 *486:A2 *55:22 0
5 *486:A2 *56:28 0
6 *481:C1 *486:A2 0
7 *486:A1 *486:A2 0
8 *28:20 *486:A2 0
9 *30:18 *486:A2 0
*RES
1 *485:X *486:A2 49.2071 
*END

*D_NET *47 0.000494066
*CONN
*I *494:B1 I *D sky130_fd_sc_hd__a21oi_1
*I *493:Y O *D sky130_fd_sc_hd__o21ai_1
*CAP
1 *494:B1 0.000247033
2 *493:Y 0.000247033
3 *494:B1 *493:A1 0
4 *494:B1 *76:11 0
5 *493:A2 *494:B1 0
*RES
1 *493:Y *494:B1 42.5643 
*END

*D_NET *48 0.00201008
*CONN
*I *512:A I *D sky130_fd_sc_hd__clkbuf_16
*I *511:A I *D sky130_fd_sc_hd__clkbuf_16
*I *510:X O *D sky130_fd_sc_hd__clkbuf_16
*CAP
1 *512:A 0
2 *511:A 0.000741572
3 *510:X 0.000263467
4 *48:8 0.00100504
5 *511:A *502:CLK 0
6 *511:A *507:CLK 0
7 *511:A *520:A 0
8 *511:A *52:8 0
9 *511:A *60:8 0
10 *511:A *60:10 0
11 *511:A *60:12 0
12 *48:8 *507:CLK 0
13 *48:8 *60:8 0
14 *493:A2 *511:A 0
15 *507:D *511:A 0
*RES
1 *510:X *48:8 24.175 
2 *48:8 *511:A 37.55 
3 *48:8 *512:A 18.3 
*END

*D_NET *49 0.00181651
*CONN
*I *502:CLK I *D sky130_fd_sc_hd__dfxtp_2
*I *503:CLK I *D sky130_fd_sc_hd__dfxtp_2
*I *466:A I *D sky130_fd_sc_hd__inv_2
*I *465:A I *D sky130_fd_sc_hd__inv_2
*I *509:A I *D sky130_fd_sc_hd__buf_2
*I *511:X O *D sky130_fd_sc_hd__clkbuf_16
*CAP
1 *502:CLK 0.000198164
2 *503:CLK 0
3 *466:A 0
4 *465:A 8.4707e-05
5 *509:A 8.4707e-05
6 *511:X 7.474e-05
7 *49:37 0.000388684
8 *49:27 0.000358629
9 *49:17 0.000360126
10 *49:6 0.000266757
11 *465:A *501:CLK 0
12 *49:6 *519:A 0
13 *49:6 *76:11 0
14 *49:17 *488:A 0
15 *49:17 *76:11 0
16 *49:27 *488:A 0
17 *49:27 *501:CLK 0
18 *49:27 *76:11 0
19 *49:37 *76:11 0
20 *511:A *502:CLK 0
21 *22:13 *502:CLK 0
*RES
1 *511:X *49:6 20.2464 
2 *49:6 *509:A 20.0679 
3 *49:6 *49:17 11.8571 
4 *49:17 *465:A 11.0679 
5 *49:17 *49:27 13.0179 
6 *49:27 *466:A 18.3 
7 *49:27 *49:37 13.625 
8 *49:37 *503:CLK 9.3 
9 *49:37 *502:CLK 31.8536 
*END

*D_NET *50 0.00312632
*CONN
*I *505:CLK I *D sky130_fd_sc_hd__dfxtp_2
*I *500:A I *D sky130_fd_sc_hd__inv_2
*I *504:CLK I *D sky130_fd_sc_hd__dfxtp_2
*I *498:A I *D sky130_fd_sc_hd__inv_2
*I *499:A I *D sky130_fd_sc_hd__inv_2
*I *512:X O *D sky130_fd_sc_hd__clkbuf_16
*CAP
1 *505:CLK 9.79505e-05
2 *500:A 0.000534766
3 *504:CLK 2.56688e-05
4 *498:A 0.000104386
5 *499:A 0
6 *512:X 0.00014659
7 *50:36 0.000718976
8 *50:27 0.000407871
9 *50:18 0.000671926
10 *50:9 0.000418187
11 *500:A *463:A 0
12 *500:A *508:CLK 0
13 *50:9 *507:CLK 0
14 *50:18 *506:CLK 0
15 *50:18 *507:CLK 0
16 *508:D *500:A 0
17 *510:A *50:9 0
18 *510:A *50:18 0
*RES
1 *512:X *50:9 30.7107 
2 *50:9 *499:A 9.3 
3 *50:9 *50:18 15.75 
4 *50:18 *498:A 20.4786 
5 *50:18 *50:27 7.71429 
6 *50:27 *504:CLK 18.8357 
7 *50:27 *50:36 2.25 
8 *50:36 *500:A 29.675 
9 *50:36 *505:CLK 20.8536 
*END

*D_NET *51 0.00125525
*CONN
*I *480:A I *D sky130_fd_sc_hd__nand2_1
*I *482:D I *D sky130_fd_sc_hd__and4b_1
*I *470:A1 I *D sky130_fd_sc_hd__mux2_1
*I *507:Q O *D sky130_fd_sc_hd__dfxtp_1
*CAP
1 *480:A 0.000180109
2 *482:D 0.000233843
3 *470:A1 0
4 *507:Q 8.87521e-05
5 *51:17 0.000538874
6 *51:10 0.000213673
7 *480:A *480:B 0
8 *480:A *73:25 0
9 *482:D *479:A_N 0
10 *482:D *54:66 0
11 *51:10 *473:A1 0
12 *51:10 *53:8 0
13 *51:17 *470:A0 0
14 *51:17 *73:25 0
15 *506:D *482:D 0
16 *34:11 *480:A 0
17 *34:11 *51:17 0
*RES
1 *507:Q *51:10 29.4786 
2 *51:10 *470:A1 9.3 
3 *51:10 *51:17 2.60714 
4 *51:17 *482:D 33.233 
5 *51:17 *480:A 13.1214 
*END

*D_NET *52 0.000694471
*CONN
*I *473:A0 I *D sky130_fd_sc_hd__mux2_1
*I *474:C_N I *D sky130_fd_sc_hd__or3b_4
*I *493:B1 I *D sky130_fd_sc_hd__o21ai_1
*I *501:Q O *D sky130_fd_sc_hd__dfxtp_1
*CAP
1 *473:A0 0.000160086
2 *474:C_N 0
3 *493:B1 0
4 *501:Q 6.30833e-05
5 *52:13 0.000284152
6 *52:8 0.000187149
7 *473:A0 *473:A1 0
8 *473:A0 *474:A 0
9 *473:A0 *488:B 0
10 *473:A0 *60:12 0
11 *52:8 *60:12 0
12 *52:13 *488:B 0
13 *52:13 *493:A1 0
14 *473:S *473:A0 0
15 *474:B *473:A0 0
16 *511:A *52:8 0
*RES
1 *501:Q *52:8 28.9429 
2 *52:8 *493:B1 9.3 
3 *52:8 *52:13 2.58929 
4 *52:13 *474:C_N 9.3 
5 *52:13 *473:A0 31.2107 
*END

*D_NET *53 0.00498197
*CONN
*I *475:A I *D sky130_fd_sc_hd__or2_2
*I *471:A I *D sky130_fd_sc_hd__nand2_1
*I *469:A I *D sky130_fd_sc_hd__or3_1
*I *495:C I *D sky130_fd_sc_hd__and4_1
*I *497:A_N I *D sky130_fd_sc_hd__and4b_1
*I *496:C I *D sky130_fd_sc_hd__and4_1
*I *467:A_N I *D sky130_fd_sc_hd__and2b_1
*I *479:A_N I *D sky130_fd_sc_hd__and2b_1
*I *482:B I *D sky130_fd_sc_hd__and4b_1
*I *502:Q O *D sky130_fd_sc_hd__dfxtp_2
*CAP
1 *475:A 0
2 *471:A 0.000222463
3 *469:A 0
4 *495:C 0.000180965
5 *497:A_N 0
6 *496:C 0.000126088
7 *467:A_N 4.90267e-05
8 *479:A_N 0.000465906
9 *482:B 0
10 *502:Q 0
11 *53:61 0.000209628
12 *53:49 0.000250405
13 *53:47 0.000179616
14 *53:45 0.000413735
15 *53:43 0.000536336
16 *53:11 0.000609652
17 *53:8 0.000750946
18 *53:4 0.0009872
19 *467:A_N *60:47 0
20 *471:A *54:35 0
21 *479:A_N *479:B 0
22 *479:A_N *486:B1_N 0
23 *495:C *495:A 0
24 *495:C *495:B 0
25 *495:C *497:C 0
26 *496:C *496:A 0
27 *496:C *496:B 0
28 *496:C *75:11 0
29 *53:8 *473:A1 0
30 *53:8 *485:B1 0
31 *53:8 *54:66 0
32 *53:8 *60:8 0
33 *53:8 *60:47 0
34 *53:43 *475:B 0
35 *53:43 *485:B1 0
36 *53:43 *56:30 0
37 *53:45 *475:B 0
38 *53:47 *475:B 0
39 *53:47 *54:39 0
40 *53:49 *54:39 0
41 *53:49 *56:30 0
42 *53:61 *497:C 0
43 *477:C *53:43 0
44 *481:B2 *479:A_N 0
45 *481:C1 *479:A_N 0
46 *482:A_N *467:A_N 0
47 *482:A_N *53:8 0
48 *482:D *479:A_N 0
49 *484:B *471:A 0
50 *485:A3 *471:A 0
51 *485:A3 *53:45 0
52 *487:A4 *479:A_N 0
53 *496:D *496:C 0
54 *506:D *479:A_N 0
55 *506:D *53:11 0
56 *21:11 *53:43 0
57 *28:20 *53:43 0
58 *28:20 *53:45 0
59 *29:10 *496:C 0
60 *29:10 *53:49 0
61 *34:11 *53:45 0
62 *51:10 *53:8 0
*RES
1 *502:Q *53:4 9.3 
2 *53:4 *53:8 23.0357 
3 *53:8 *53:11 12 
4 *53:11 *482:B 9.3 
5 *53:11 *479:A_N 37.7821 
6 *53:8 *467:A_N 19.6393 
7 *53:4 *53:43 18.6964 
8 *53:43 *53:45 2.85714 
9 *53:45 *53:47 2.25 
10 *53:47 *53:49 2.55357 
11 *53:49 *496:C 21.3893 
12 *53:49 *53:61 9.53571 
13 *53:61 *497:A_N 9.3 
14 *53:61 *495:C 13.1393 
15 *53:47 *469:A 18.3 
16 *53:45 *471:A 22.9429 
17 *53:43 *475:A 18.3 
*END

*D_NET *54 0.00454727
*CONN
*I *478:B I *D sky130_fd_sc_hd__and2b_1
*I *467:B I *D sky130_fd_sc_hd__and2b_1
*I *475:B I *D sky130_fd_sc_hd__or2_2
*I *495:D I *D sky130_fd_sc_hd__and4_1
*I *462:A I *D sky130_fd_sc_hd__inv_2
*I *471:B I *D sky130_fd_sc_hd__nand2_1
*I *474:A I *D sky130_fd_sc_hd__or3b_4
*I *503:Q O *D sky130_fd_sc_hd__dfxtp_2
*CAP
1 *478:B 6.06834e-05
2 *467:B 6.50276e-05
3 *475:B 0.000161092
4 *495:D 0.000123127
5 *462:A 2.0535e-05
6 *471:B 0
7 *474:A 0.000340663
8 *503:Q 0.000163425
9 *54:66 0.000771629
10 *54:39 0.000387222
11 *54:35 0.000701554
12 *54:11 0.000360342
13 *54:10 0.000449605
14 *54:7 0.000942366
15 *474:A *473:A1 0
16 *474:A *60:10 0