*SPEF "ieee 1481-1999"
*DESIGN "wrapped_MC14500"
*DATE "11:11:11 Fri 11 11, 1111"
*VENDOR "OpenRCX"
*PROGRAM "Parallel Extraction"
*VERSION "1.0"
*DESIGN_FLOW "NAME_SCOPE LOCAL" "PIN_CAP NONE"
*DIVIDER /
*DELIMITER :
*BUS_DELIMITER []
*T_UNIT 1 NS
*C_UNIT 1 PF
*R_UNIT 1 OHM
*L_UNIT 1 HENRY

*NAME_MAP
*1 clk
*2 io_in[0]
*3 io_in[1]
*4 io_in[2]
*5 io_in[3]
*6 io_in[4]
*7 io_oeb
*8 io_out[0]
*9 io_out[1]
*10 io_out[2]
*11 io_out[3]
*12 io_out[4]
*13 io_out[5]
*14 io_out[6]
*15 io_out[7]
*16 net16
*17 rst
*20 _00_
*21 _01_
*22 _02_
*23 _03_
*24 _04_
*25 _05_
*26 _10_
*27 _11_
*28 _12_
*29 _13_
*30 _14_
*31 _15_
*32 _16_
*33 _17_
*34 _18_
*35 _19_
*36 _20_
*37 _21_
*38 _22_
*39 _23_
*40 _24_
*41 _25_
*42 _26_
*43 _27_
*44 _28_
*45 _29_
*46 _30_
*47 _31_
*48 clknet_0_clk
*49 clknet_1_0__leaf_clk
*50 clknet_1_1__leaf_clk
*51 mc14500\.IEN_l
*52 mc14500\.OEN_l
*53 mc14500\.instr\[0\]
*54 mc14500\.instr\[1\]
*55 mc14500\.instr\[2\]
*56 mc14500\.instr\[3\]
*57 mc14500\.skip
*58 net1
*59 net10
*60 net11
*61 net12
*62 net13
*63 net14
*64 net15
*65 net17
*66 net18
*67 net19
*68 net2
*69 net20
*70 net21
*71 net3
*72 net4
*73 net5
*74 net6
*75 net7
*76 net8
*77 net9
*78 ANTENNA_clkbuf_0_clk_A
*79 ANTENNA_input1_A
*80 ANTENNA_input2_A
*81 ANTENNA_input3_A
*82 ANTENNA_input4_A
*83 ANTENNA_input5_A
*84 ANTENNA_input6_A
*85 FILLER_0_101
*86 FILLER_0_11
*87 FILLER_0_19
*88 FILLER_0_26
*89 FILLER_0_29
*90 FILLER_0_3
*91 FILLER_0_33
*92 FILLER_0_40
*93 FILLER_0_46
*94 FILLER_0_53
*95 FILLER_0_57
*96 FILLER_0_66
*97 FILLER_0_72
*98 FILLER_0_79
*99 FILLER_0_83
*100 FILLER_0_85
*101 FILLER_0_93
*102 FILLER_10_15
*103 FILLER_10_26
*104 FILLER_10_29
*105 FILLER_10_3
*106 FILLER_10_41
*107 FILLER_10_65
*108 FILLER_10_77
*109 FILLER_10_83
*110 FILLER_10_85
*111 FILLER_10_97
*112 FILLER_11_100
*113 FILLER_11_15
*114 FILLER_11_3
*115 FILLER_11_46
*116 FILLER_11_53
*117 FILLER_11_57
*118 FILLER_11_67
*119 FILLER_11_80
*120 FILLER_11_92
*121 FILLER_12_101
*122 FILLER_12_15
*123 FILLER_12_27
*124 FILLER_12_29
*125 FILLER_12_3
*126 FILLER_12_34
*127 FILLER_12_46
*128 FILLER_12_58
*129 FILLER_12_81
*130 FILLER_12_85
*131 FILLER_12_93
*132 FILLER_13_15
*133 FILLER_13_27
*134 FILLER_13_3
*135 FILLER_13_39
*136 FILLER_13_51
*137 FILLER_13_55
*138 FILLER_13_57
*139 FILLER_13_67
*140 FILLER_13_79
*141 FILLER_13_91
*142 FILLER_14_15
*143 FILLER_14_27
*144 FILLER_14_29
*145 FILLER_14_3
*146 FILLER_14_41
*147 FILLER_14_53
*148 FILLER_14_59
*149 FILLER_14_63
*150 FILLER_14_75
*151 FILLER_14_83
*152 FILLER_14_85
*153 FILLER_14_97
*154 FILLER_15_102
*155 FILLER_15_15
*156 FILLER_15_27
*157 FILLER_15_3
*158 FILLER_15_39
*159 FILLER_15_51
*160 FILLER_15_55
*161 FILLER_15_57
*162 FILLER_15_75
*163 FILLER_15_82
*164 FILLER_15_94
*165 FILLER_16_15
*166 FILLER_16_27
*167 FILLER_16_29
*168 FILLER_16_3
*169 FILLER_16_41
*170 FILLER_16_53
*171 FILLER_16_59
*172 FILLER_16_77
*173 FILLER_16_83
*174 FILLER_16_85
*175 FILLER_16_97
*176 FILLER_17_100
*177 FILLER_17_15
*178 FILLER_17_27
*179 FILLER_17_3
*180 FILLER_17_39
*181 FILLER_17_51
*182 FILLER_17_55
*183 FILLER_17_57
*184 FILLER_17_63
*185 FILLER_17_76
*186 FILLER_17_88
*187 FILLER_18_15
*188 FILLER_18_27
*189 FILLER_18_29
*190 FILLER_18_3
*191 FILLER_18_41
*192 FILLER_18_53
*193 FILLER_18_65
*194 FILLER_18_77
*195 FILLER_18_83
*196 FILLER_18_85
*197 FILLER_18_97
*198 FILLER_19_101
*199 FILLER_19_15
*200 FILLER_19_27
*201 FILLER_19_3
*202 FILLER_19_39
*203 FILLER_19_51
*204 FILLER_19_55
*205 FILLER_19_57
*206 FILLER_19_69
*207 FILLER_19_81
*208 FILLER_19_89
*209 FILLER_19_93
*210 FILLER_1_101
*211 FILLER_1_12
*212 FILLER_1_3
*213 FILLER_1_36
*214 FILLER_1_49
*215 FILLER_1_55
*216 FILLER_1_57
*217 FILLER_1_66
*218 FILLER_1_7
*219 FILLER_1_74
*220 FILLER_1_81
*221 FILLER_1_91
*222 FILLER_20_15
*223 FILLER_20_27
*224 FILLER_20_29
*225 FILLER_20_3
*226 FILLER_20_41
*227 FILLER_20_53
*228 FILLER_20_65
*229 FILLER_20_77
*230 FILLER_20_83
*231 FILLER_20_85
*232 FILLER_20_97
*233 FILLER_21_101
*234 FILLER_21_15
*235 FILLER_21_27
*236 FILLER_21_3
*237 FILLER_21_39
*238 FILLER_21_51
*239 FILLER_21_55
*240 FILLER_21_57
*241 FILLER_21_69
*242 FILLER_21_81
*243 FILLER_21_93
*244 FILLER_22_15
*245 FILLER_22_27
*246 FILLER_22_29
*247 FILLER_22_3
*248 FILLER_22_41
*249 FILLER_22_53
*250 FILLER_22_65
*251 FILLER_22_77
*252 FILLER_22_83
*253 FILLER_22_85
*254 FILLER_22_97
*255 FILLER_23_101
*256 FILLER_23_15
*257 FILLER_23_27
*258 FILLER_23_3
*259 FILLER_23_39
*260 FILLER_23_51
*261 FILLER_23_55
*262 FILLER_23_57
*263 FILLER_23_69
*264 FILLER_23_81
*265 FILLER_23_93
*266 FILLER_24_101
*267 FILLER_24_15
*268 FILLER_24_27
*269 FILLER_24_29
*270 FILLER_24_3
*271 FILLER_24_41
*272 FILLER_24_53
*273 FILLER_24_57
*274 FILLER_24_69
*275 FILLER_24_77
*276 FILLER_24_82
*277 FILLER_24_85
*278 FILLER_24_91
*279 FILLER_2_101
*280 FILLER_2_15
*281 FILLER_2_24
*282 FILLER_2_29
*283 FILLER_2_3
*284 FILLER_2_47
*285 FILLER_2_59
*286 FILLER_2_63
*287 FILLER_2_81
*288 FILLER_2_85
*289 FILLER_2_97
*290 FILLER_3_11
*291 FILLER_3_17
*292 FILLER_3_25
*293 FILLER_3_3
*294 FILLER_3_42
*295 FILLER_3_51
*296 FILLER_3_55
*297 FILLER_3_57
*298 FILLER_3_68
*299 FILLER_3_79
*300 FILLER_3_91
*301 FILLER_4_15
*302 FILLER_4_26
*303 FILLER_4_29
*304 FILLER_4_3
*305 FILLER_4_36
*306 FILLER_4_40
*307 FILLER_4_44
*308 FILLER_4_53
*309 FILLER_4_64
*310 FILLER_4_71
*311 FILLER_4_83
*312 FILLER_4_85
*313 FILLER_4_97
*314 FILLER_5_100
*315 FILLER_5_15
*316 FILLER_5_27
*317 FILLER_5_3
*318 FILLER_5_31
*319 FILLER_5_35
*320 FILLER_5_47
*321 FILLER_5_52
*322 FILLER_5_57
*323 FILLER_5_64
*324 FILLER_5_76
*325 FILLER_5_88
*326 FILLER_6_101
*327 FILLER_6_15
*328 FILLER_6_27
*329 FILLER_6_29
*330 FILLER_6_3
*331 FILLER_6_41
*332 FILLER_6_49
*333 FILLER_6_55
*334 FILLER_6_67
*335 FILLER_6_75
*336 FILLER_6_81
*337 FILLER_6_85
*338 FILLER_6_93
*339 FILLER_7_102
*340 FILLER_7_15
*341 FILLER_7_27
*342 FILLER_7_3
*343 FILLER_7_39
*344 FILLER_7_44
*345 FILLER_7_54
*346 FILLER_7_57
*347 FILLER_7_82
*348 FILLER_7_94
*349 FILLER_8_15
*350 FILLER_8_27
*351 FILLER_8_29
*352 FILLER_8_3
*353 FILLER_8_33
*354 FILLER_8_43
*355 FILLER_8_67
*356 FILLER_8_77
*357 FILLER_8_83
*358 FILLER_8_85
*359 FILLER_8_97
*360 FILLER_9_15
*361 FILLER_9_23
*362 FILLER_9_3
*363 FILLER_9_42
*364 FILLER_9_54
*365 FILLER_9_57
*366 FILLER_9_68
*367 FILLER_9_75
*368 FILLER_9_87
*369 FILLER_9_99
*370 PHY_0
*371 PHY_1
*372 PHY_10
*373 PHY_11
*374 PHY_12
*375 PHY_13
*376 PHY_14
*377 PHY_15
*378 PHY_16
*379 PHY_17
*380 PHY_18
*381 PHY_19
*382 PHY_2
*383 PHY_20
*384 PHY_21
*385 PHY_22
*386 PHY_23
*387 PHY_24
*388 PHY_25
*389 PHY_26
*390 PHY_27
*391 PHY_28
*392 PHY_29
*393 PHY_3
*394 PHY_30
*395 PHY_31
*396 PHY_32
*397 PHY_33
*398 PHY_34
*399 PHY_35
*400 PHY_36
*401 PHY_37
*402 PHY_38
*403 PHY_39
*404 PHY_4
*405 PHY_40
*406 PHY_41
*407 PHY_42
*408 PHY_43
*409 PHY_44
*410 PHY_45
*411 PHY_46
*412 PHY_47
*413 PHY_48
*414 PHY_49
*415 PHY_5
*416 PHY_6
*417 PHY_7
*418 PHY_8
*419 PHY_9
*420 TAP_50
*421 TAP_51
*422 TAP_52
*423 TAP_53
*424 TAP_54
*425 TAP_55
*426 TAP_56
*427 TAP_57
*428 TAP_58
*429 TAP_59
*430 TAP_60
*431 TAP_61
*432 TAP_62
*433 TAP_63
*434 TAP_64
*435 TAP_65
*436 TAP_66
*437 TAP_67
*438 TAP_68
*439 TAP_69
*440 TAP_70
*441 TAP_71
*442 TAP_72
*443 TAP_73
*444 TAP_74
*445 TAP_75
*446 TAP_76
*447 TAP_77
*448 TAP_78
*449 TAP_79
*450 TAP_80
*451 TAP_81
*452 TAP_82
*453 TAP_83
*454 TAP_84
*455 TAP_85
*456 TAP_86
*457 TAP_87
*458 TAP_88
*459 TAP_89
*460 _32_
*461 _33_
*462 _34_
*463 _35_
*464 _36__1
*465 _36__2
*466 _37_
*467 _38_
*468 _39_
*469 _40_
*470 _41_
*471 _42_
*472 _43_
*473 _44_
*474 _45_
*475 _46_
*476 _47_
*477 _48_
*478 _49_
*479 _50_
*480 _51_
*481 _52_
*482 _53_
*483 _54_
*484 _55_
*485 _56_
*486 _57_
*487 _58_
*488 _59_
*489 _60_
*490 _61_
*491 _62_
*492 _63_
*493 _64_
*494 _65_
*495 _66_
*496 _67_
*497 _68__3
*498 _69__4
*499 _70__5
*500 _71_
*501 _72_
*502 _73_
*503 _74_
*504 _75_
*505 _76_
*506 _77_
*507 _78_
*508 _80_
*509 clkbuf_0_clk
*510 clkbuf_1_0__f_clk
*511 clkbuf_1_1__f_clk
*512 input1
*513 input2
*514 input3
*515 input4
*516 input5
*517 input6
*518 output10
*519 output11
*520 output12
*521 output13
*522 output14
*523 output15
*524 output7
*525 output8
*526 output9
*527 wrapped_MC14500_16

*PORTS
clk I
io_in[0] I
io_in[1] I
io_in[2] I
io_in[3] I
io_in[4] I
io_oeb O
io_out[0] O
io_out[1] O
io_out[2] O
io_out[3] O
io_out[4] O
io_out[5] O
io_out[6] O
io_out[7] O
io_out[8] O
rst I

*D_NET *1 0.00485724
*CONN
*P clk I
*I *509:A I *D sky130_fd_sc_hd__clkbuf_16
*I *78:DIODE I *D sky130_fd_sc_hd__diode_2
*CAP
1 clk 0.00104166
2 *509:A 0.000104386
3 *78:DIODE 6.54832e-05
4 *1:11 0.00138697
5 *1:10 0.00225875
6 *78:DIODE *472:A1 0
7 *78:DIODE *60:53 0
8 *1:11 *463:A 0
9 *1:11 *469:A1 0
10 *1:11 *480:B2 0
11 *1:11 *506:D 0
12 *1:11 *60:8 0
13 *1:11 *60:18 0
14 *1:11 *60:53 0
15 *1:11 *73:30 0
*RES
1 clk *1:10 42.8571 
2 *1:10 *1:11 31.6964 
3 *1:11 *78:DIODE 19.9429 
4 *1:11 *509:A 20.4786 
*END

*D_NET *2 0.00114425
*CONN
*P io_in[0] I
*I *79:DIODE I *D sky130_fd_sc_hd__diode_2
*I *512:A I *D sky130_fd_sc_hd__clkbuf_2
*CAP
1 io_in[0] 0.000305025
2 *79:DIODE 0.000267101
3 *512:A 0
4 *2:8 0.000572126
5 *79:DIODE io_out[8] 0
6 *79:DIODE *524:A 0
7 *2:8 io_out[8] 0
*RES
1 io_in[0] *2:8 6.66405 
2 *2:8 *512:A 18.3 
3 *2:8 *79:DIODE 24.3714 
*END

*D_NET *3 0.000905287
*CONN
*P io_in[1] I
*I *513:A I *D sky130_fd_sc_hd__clkbuf_2
*I *80:DIODE I *D sky130_fd_sc_hd__diode_2
*CAP
1 io_in[1] 0.000288363
2 *513:A 0
3 *80:DIODE 0.00016428
4 *3:12 0.000452643
5 *80:DIODE *489:B 0
*RES
1 io_in[1] *3:12 13.7991 
2 *3:12 *80:DIODE 12.7286 
3 *3:12 *513:A 9.3 
*END

*D_NET *4 0.000734278
*CONN
*P io_in[2] I
*I *514:A I *D sky130_fd_sc_hd__clkbuf_2
*I *81:DIODE I *D sky130_fd_sc_hd__diode_2
*CAP
1 io_in[2] 0.000223394
2 *514:A 0
3 *81:DIODE 0.000143745
4 *4:10 0.000367139
*RES
1 io_in[2] *4:10 13.5391 
2 *4:10 *81:DIODE 12.3 
3 *4:10 *514:A 9.3 
*END

*D_NET *5 0.000850707
*CONN
*P io_in[3] I
*I *515:A I *D sky130_fd_sc_hd__clkbuf_2
*I *82:DIODE I *D sky130_fd_sc_hd__diode_2
*CAP
1 io_in[3] 0.000281609
2 *515:A 0
3 *82:DIODE 0.000143745
4 *5:10 0.000425354
5 *82:DIODE *72:10 0
*RES
1 io_in[3] *5:10 15.0569 
2 *5:10 *82:DIODE 12.3 
3 *5:10 *515:A 9.3 
*END

*D_NET *6 0.000779617
*CONN
*P io_in[4] I
*I *83:DIODE I *D sky130_fd_sc_hd__diode_2
*I *516:A I *D sky130_fd_sc_hd__clkbuf_2
*CAP
1 io_in[4] 0.000302308
2 *83:DIODE 6.18319e-05
3 *516:A 2.56688e-05
4 *6:11 0.000389809
*RES
1 io_in[4] *6:11 18.4262 
2 *6:11 *516:A 9.83571 
3 *6:11 *83:DIODE 28.9429 
*END

*D_NET *7 0.00128613
*CONN
*P io_oeb O
*I *524:X O *D sky130_fd_sc_hd__buf_4
*CAP
1 io_oeb 0.000643064
2 *524:X 0.000643064
*RES
1 *524:X io_oeb 33.6929 
*END

*D_NET *8 0.00107631
*CONN
*P io_out[0] O
*I *525:X O *D sky130_fd_sc_hd__buf_4
*CAP
1 io_out[0] 0.000538154
2 *525:X 0.000538154
*RES
1 *525:X io_out[0] 30.9607 
*END

*D_NET *9 0.000790509
*CONN
*P io_out[1] O
*I *526:X O *D sky130_fd_sc_hd__clkbuf_2
*CAP
1 io_out[1] 0.000395255
2 *526:X 0.000395255
*RES
1 *526:X io_out[1] 28.4607 
*END

*D_NET *10 0.00116339
*CONN
*P io_out[2] O
*I *518:X O *D sky130_fd_sc_hd__clkbuf_2
*CAP
1 io_out[2] 0.000581693
2 *518:X 0.000581693
3 io_out[2] *487:A 0
4 io_out[2] *487:B 0
5 io_out[2] *518:A 0
6 io_out[2] *49:19 0
7 io_out[2] *49:30 0
*RES
1 *518:X io_out[2] 33.3179 
*END

*D_NET *11 0.00068272
*CONN
*P io_out[3] O
*I *519:X O *D sky130_fd_sc_hd__buf_4
*CAP
1 io_out[3] 0.00034136
2 *519:X 0.00034136
3 io_out[3] *519:A 0
*RES
1 *519:X io_out[3] 26.8536 
*END

*D_NET *12 0.000681485
*CONN
*P io_out[4] O
*I *520:X O *D sky130_fd_sc_hd__buf_4
*CAP
1 io_out[4] 0.000340742
2 *520:X 0.000340742
*RES
1 *520:X io_out[4] 27.1036 
*END

*D_NET *13 0.000722079
*CONN
*P io_out[5] O
*I *521:X O *D sky130_fd_sc_hd__buf_4
*CAP
1 io_out[5] 0.000361039
2 *521:X 0.000361039
*RES
1 *521:X io_out[5] 27.2643 
*END

*D_NET *14 0.000722079
*CONN
*P io_out[6] O
*I *522:X O *D sky130_fd_sc_hd__buf_4
*CAP
1 io_out[6] 0.000361039
2 *522:X 0.000361039
*RES
1 *522:X io_out[6] 27.2643 
*END

*D_NET *15 0.000761437
*CONN
*P io_out[7] O
*I *523:X O *D sky130_fd_sc_hd__buf_4
*CAP
1 io_out[7] 0.000380719
2 *523:X 0.000380719
3 io_out[7] *488:B 0
*RES
1 *523:X io_out[7] 27.675 
*END

*D_NET *16 0.000948992
*CONN
*P io_out[8] O
*I *527:LO O *D sky130_fd_sc_hd__conb_1
*CAP
1 io_out[8] 0.000474496
2 *527:LO 0.000474496
3 *79:DIODE io_out[8] 0
4 *2:8 io_out[8] 0
*RES
1 *527:LO io_out[8] 30.6571 
*END

*D_NET *17 0.000988356
*CONN
*P rst I
*I *84:DIODE I *D sky130_fd_sc_hd__diode_2
*I *517:A I *D sky130_fd_sc_hd__clkbuf_2
*CAP
1 rst 0.000287989
2 *84:DIODE 8.32096e-05
3 *517:A 0.00012298
4 *17:5 0.000494178
*RES
1 rst *17:5 7.5 
2 *17:5 *517:A 21.1036 
3 *17:5 *84:DIODE 20.0679 
*END

*D_NET *20 0.000681078
*CONN
*I *505:D I *D sky130_fd_sc_hd__dfxtp_4
*I *485:X O *D sky130_fd_sc_hd__o21ba_1
*CAP
1 *505:D 0.000340539
2 *485:X 0.000340539
3 *505:D *479:B 0
4 *505:D *480:C1 0
5 *505:D *73:11 0
*RES
1 *485:X *505:D 25.7071 
*END

*D_NET *21 0.000472809
*CONN
*I *501:D I *D sky130_fd_sc_hd__dfxtp_2
*I *488:X O *D sky130_fd_sc_hd__and2_1
*CAP
1 *501:D 0.000236404
2 *488:X 0.000236404
3 *501:D *522:A 0
4 *501:D *53:7 0
5 *501:D *53:9 0
6 *501:D *56:23 0
*RES
1 *488:X *501:D 41.8009 
*END

*D_NET *22 0.000484876
*CONN
*I *502:D I *D sky130_fd_sc_hd__dfxtp_2
*I *489:X O *D sky130_fd_sc_hd__and2_1
*CAP
1 *502:D 0.000242438
2 *489:X 0.000242438
3 *502:D *466:B 0
4 *502:D *54:8 0
*RES
1 *489:X *502:D 41.9973 
*END

*D_NET *23 0.000433553
*CONN
*I *503:D I *D sky130_fd_sc_hd__dfxtp_2
*I *490:X O *D sky130_fd_sc_hd__and2_1
*CAP
1 *503:D 0.000216776
2 *490:X 0.000216776
3 *503:D *30:18 0
4 *503:D *55:5 0
5 *503:D *55:9 0
6 *503:D *55:27 0
*RES
1 *490:X *503:D 41.3902 
*END

*D_NET *24 0.000480179
*CONN
*I *504:D I *D sky130_fd_sc_hd__dfxtp_2
*I *491:X O *D sky130_fd_sc_hd__and2_1
*CAP
1 *504:D 0.00024009
2 *491:X 0.00024009
3 *504:D *491:A 0
4 *504:D *499:A 0
5 *504:D *56:8 0
*RES
1 *491:X *504:D 41.9973 
*END

*D_NET *25 0.000550533
*CONN
*I *507:D I *D sky130_fd_sc_hd__dfxtp_1
*I *486:X O *D sky130_fd_sc_hd__a41o_1
*CAP
1 *507:D 0.000275266
2 *486:X 0.000275266
3 *507:D *485:B1_N 0
4 *507:D *50:37 0
5 *507:D *56:8 0
*RES
1 *486:X *507:D 43.2116 
*END

*D_NET *26 0.000318678
*CONN
*I *500:D I *D sky130_fd_sc_hd__dfxtp_1
*I *472:X O *D sky130_fd_sc_hd__mux2_1
*CAP
1 *500:D 0.000159339
2 *472:X 0.000159339
3 *500:D *47:15 0
4 *500:D *49:30 0
5 *500:D *49:42 0
6 *500:D *60:22 0
*RES
1 *472:X *500:D 40.3723 
*END

*D_NET *27 0.000362103
*CONN
*I *506:D I *D sky130_fd_sc_hd__dfxtp_1
*I *469:X O *D sky130_fd_sc_hd__mux2_1
*CAP
1 *506:D 0.000181052
2 *469:X 0.000181052
3 *506:D *60:18 0
4 *506:D *73:30 0
5 *1:11 *506:D 0
*RES
1 *469:X *506:D 40.7652 
*END

*D_NET *28 0.00192479
*CONN
*I *467:A I *D sky130_fd_sc_hd__or2_1
*I *476:A I *D sky130_fd_sc_hd__and3_1
*I *482:C1 I *D sky130_fd_sc_hd__o221a_1
*I *460:Y O *D sky130_fd_sc_hd__inv_2
*CAP
1 *467:A 2.56688e-05
2 *476:A 0.000256335
3 *482:C1 4.62038e-05
4 *460:Y 0.000258827
5 *28:16 0.000657366
6 *28:5 0.000680393
7 *467:A *54:22 0
8 *476:A *484:B1 0
9 *476:A *502:CLK 0
10 *476:A *33:9 0
11 *476:A *46:15 0
12 *476:A *49:42 0
13 *482:C1 *482:A1 0
14 *482:C1 *482:B2 0
15 *28:5 *460:A 0
16 *28:5 *482:A1 0
17 *28:5 *482:A2 0
18 *28:5 *482:B2 0
19 *28:5 *485:A1 0
20 *28:16 *482:B1 0
21 *28:16 *484:B1 0
22 *28:16 *32:8 0
23 *28:16 *46:15 0
*RES
1 *460:Y *28:5 14.7643 
2 *28:5 *482:C1 10.2643 
3 *28:5 *28:16 18.8393 
4 *28:16 *476:A 24.6393 
5 *28:16 *467:A 18.8357 
*END

*D_NET *29 0.00125729
*CONN
*I *468:B I *D sky130_fd_sc_hd__or3_1
*I *495:D I *D sky130_fd_sc_hd__and4_1
*I *496:B I *D sky130_fd_sc_hd__and4b_1
*I *461:Y O *D sky130_fd_sc_hd__inv_2
*CAP
1 *468:B 0
2 *495:D 0.000198806
3 *496:B 0
4 *461:Y 0.00022301
5 *29:17 0.000405634
6 *29:12 0.000429839
7 *495:D *495:C 0
8 *495:D *53:11 0
9 *495:D *53:16 0
10 *29:12 *473:B 0
11 *29:12 *34:9 0
12 *29:12 *37:17 0
13 *29:12 *53:35 0
14 *29:12 *54:34 0
15 *29:17 *473:B 0
16 *29:17 *510:A 0
17 *29:17 *520:A 0
18 *29:17 *34:9 0
19 *29:17 *53:16 0
*RES
1 *461:Y *29:12 23.6929 
2 *29:12 *29:17 13.6429 
3 *29:17 *496:B 9.3 
4 *29:17 *495:D 31.8357 
5 *29:12 *468:B 18.3 
*END

*D_NET *30 0.00435516
*CONN
*I *490:A I *D sky130_fd_sc_hd__and2_1
*I *489:A I *D sky130_fd_sc_hd__and2_1
*I *476:B I *D sky130_fd_sc_hd__and3_1
*I *488:A I *D sky130_fd_sc_hd__and2_1
*I *491:A I *D sky130_fd_sc_hd__and2_1
*I *462:Y O *D sky130_fd_sc_hd__inv_2
*CAP
1 *490:A 6.50276e-05
2 *489:A 4.53482e-05
3 *476:B 0.00037562
4 *488:A 0.000224947
5 *491:A 0.000317807
6 *462:Y 0
7 *30:22 0.000896784
8 *30:20 0.000798525
9 *30:18 0.000917641
10 *30:4 0.000713461
11 *476:B *494:A 0
12 *476:B *494:B 0
13 *476:B *494:D 0
14 *476:B *522:A 0
15 *476:B *523:A 0
16 *488:A *494:C 0
17 *488:A *522:A 0
18 *488:A *523:A 0
19 *488:A *524:A 0
20 *489:A *489:B 0
21 *490:A *490:B 0
22 *491:A *462:A 0
23 *491:A *56:8 0
24 *30:18 *74:6 0
25 *30:20 *466:B 0
26 *30:20 *54:8 0
27 *30:22 *494:C 0
28 *30:22 *494:D 0
29 *30:22 *54:8 0
30 *503:D *30:18 0
31 *504:D *491:A 0
*RES
1 *462:Y *30:4 9.3 
2 *30:4 *491:A 35.0679 
3 *30:4 *30:18 19.1786 
4 *30:18 *30:20 11.9643 
5 *30:20 *30:22 7.71429 
6 *30:22 *488:A 23.925 
7 *30:22 *476:B 26.1393 
8 *30:20 *489:A 19.2464 
9 *30:18 *490:A 19.6571 
*END

*D_NET *31 0.000130877
*CONN
*I *486:A3 I *D sky130_fd_sc_hd__a41o_1
*I *463:Y O *D sky130_fd_sc_hd__inv_2
*CAP
1 *486:A3 6.54387e-05
2 *463:Y 6.54387e-05
3 *486:A3 *486:A2 0
4 *486:A3 *50:37 0
*RES
1 *463:Y *486:A3 38.1714 
*END

*D_NET *32 0.00174396
*CONN
*I *486:A4 I *D sky130_fd_sc_hd__a41o_1
*I *480:A2 I *D sky130_fd_sc_hd__o221a_1
*I *466:X O *D sky130_fd_sc_hd__and2b_1
*CAP
1 *486:A4 0.000151424
2 *480:A2 6.50276e-05
3 *466:X 0.000655527
4 *32:8 0.000871979
5 *480:A2 *480:A1 0
6 *486:A4 *485:B1_N 0
7 *32:8 *466:A_N 0
8 *32:8 *480:B1 0
9 *32:8 *480:C1 0
10 *32:8 *482:B1 0
11 *32:8 *485:B1_N 0
12 *32:8 *53:62 0
13 *28:16 *32:8 0
*RES
1 *466:X *32:8 33.8179 
2 *32:8 *480:A2 19.6571 
3 *32:8 *486:A4 21.9071 
*END

*D_NET *33 0.00263216
*CONN
*I *468:C I *D sky130_fd_sc_hd__or3_1
*I *473:B I *D sky130_fd_sc_hd__or3b_4
*I *471:A I *D sky130_fd_sc_hd__nor2_1
*I *467:X O *D sky130_fd_sc_hd__or2_1
*CAP
1 *468:C 0
2 *473:B 0.000294776
3 *471:A 0.000617315
4 *467:X 0.000336395
5 *33:13 0.000979686
6 *33:9 0.000403989
7 *471:A *49:30 0
8 *471:A *49:42 0
9 *471:A *52:20 0
10 *471:A *60:22 0
11 *473:B *510:A 0
12 *473:B *520:A 0
13 *473:B *524:A 0
14 *473:B *53:16 0
15 *33:9 *468:A 0
16 *33:9 *484:B1 0
17 *33:9 *502:CLK 0
18 *33:9 *49:42 0
19 *33:13 *468:A 0
20 *33:13 *49:42 0
21 *476:A *33:9 0
22 *29:12 *473:B 0
23 *29:17 *473:B 0
*RES
1 *467:X *33:9 35.1929 
2 *33:9 *33:13 1.58036 
3 *33:13 *471:A 40.5411 
4 *33:13 *473:B 34.6839 
5 *33:9 *468:C 9.3 
*END

*D_NET *34 0.00122565
*CONN
*I *469:S I *D sky130_fd_sc_hd__mux2_1
*I *468:X O *D sky130_fd_sc_hd__or3_1
*CAP
1 *469:S 0
2 *468:X 0.000612824
3 *34:9 0.000612824
4 *34:9 *469:A1 0
5 *34:9 *510:A 0
6 *34:9 *511:A 0
7 *34:9 *39:12 0
8 *34:9 *53:35 0
9 *34:9 *53:44 0
10 *34:9 *53:53 0
11 *29:12 *34:9 0
12 *29:17 *34:9 0
*RES
1 *468:X *34:9 42.6571 
2 *34:9 *469:S 9.3 
*END

*D_NET *35 0.0011807
*CONN
*I *483:B I *D sky130_fd_sc_hd__and3_1
*I *471:B I *D sky130_fd_sc_hd__nor2_1
*I *470:Y O *D sky130_fd_sc_hd__nand2_1
*CAP
1 *483:B 0
2 *471:B 0.000550595
3 *470:Y 3.97528e-05
4 *35:8 0.000590348
5 *471:B *472:S 0
6 *471:B *492:A2 0
7 *471:B *37:17 0
8 *35:8 *54:34 0
*RES
1 *470:Y *35:8 28.3357 
2 *35:8 *471:B 20.7286 
3 *35:8 *483:B 9.3 
*END

*D_NET *36 0.000774948
*CONN
*I *472:S I *D sky130_fd_sc_hd__mux2_1
*I *471:Y O *D sky130_fd_sc_hd__nor2_1
*CAP
1 *472:S 0.000387474
2 *471:Y 0.000387474
3 *472:S *472:A1 0
4 *472:S *492:A2 0
5 *472:S *493:A2 0
6 *471:B *472:S 0
*RES
1 *471:Y *472:S 45.1357 
*END

*D_NET *37 0.00425532
*CONN
*I *482:A2 I *D sky130_fd_sc_hd__o221a_1
*I *475:B I *D sky130_fd_sc_hd__nor2_1
*I *483:C I *D sky130_fd_sc_hd__and3_1
*I *493:A2 I *D sky130_fd_sc_hd__a21oi_1
*I *492:A2 I *D sky130_fd_sc_hd__o21ai_1
*I *474:X O *D sky130_fd_sc_hd__or2_2
*CAP
1 *482:A2 0.000436268
2 *475:B 0.000282357
3 *483:C 0
4 *493:A2 0.000655037
5 *492:A2 8.4707e-05
6 *474:X 2.56688e-05
7 *37:17 0.00105804
8 *37:11 0.00041284
9 *37:10 0.000607689
10 *37:7 0.000692722
11 *475:B *483:A 0
12 *475:B *484:A1 0
13 *475:B *484:A2 0
14 *475:B *484:A3 0
15 *482:A2 *482:A1 0
16 *482:A2 *482:B2 0
17 *482:A2 *53:53 0
18 *482:A2 *53:62 0
19 *493:A2 *472:A1 0
20 *493:A2 *473:A 0
21 *493:A2 *492:B1 0
22 *493:A2 *519:A 0
23 *493:A2 *525:A 0
24 *493:A2 *47:15 0
25 *37:10 *53:35 0
26 *37:10 *54:34 0
27 *37:11 *483:A 0
28 *37:11 *484:A3 0
29 *37:17 *483:A 0
30 *37:17 *54:34 0
31 *471:B *492:A2 0
32 *471:B *37:17 0
33 *472:S *492:A2 0
34 *472:S *493:A2 0
35 *28:5 *482:A2 0
36 *29:12 *37:17 0
*RES
1 *474:X *37:7 18.8357 
2 *37:7 *37:10 14.8929 
3 *37:10 *37:11 2.03571 
4 *37:11 *37:17 6.76786 
5 *37:17 *492:A2 11.0679 
6 *37:17 *493:A2 42.925 
7 *37:11 *483:C 9.3 
8 *37:10 *475:B 15.3179 
9 *37:7 *482:A2 28.6393 
*END

*D_NET *38 0.000524387
*CONN
*I *476:C I *D sky130_fd_sc_hd__and3_1
*I *484:A2 I *D sky130_fd_sc_hd__o31a_1
*I *475:Y O *D sky130_fd_sc_hd__nor2_1
*CAP
1 *476:C 9.57743e-05
2 *484:A2 0.000104386
3 *475:Y 6.20329e-05
4 *38:5 0.000262194
5 *476:C *502:CLK 0
6 *484:A2 *484:A1 0
7 *484:A2 *46:15 0
8 *38:5 *484:A1 0
9 *475:B *484:A2 0
*RES
1 *475:Y *38:5 10.6571 
2 *38:5 *484:A2 11.4786 
3 *38:5 *476:C 29.7464 
*END

*D_NET *39 0.0012056
*CONN
*I *480:B1 I *D sky130_fd_sc_hd__o221a_1
*I *481:A_N I *D sky130_fd_sc_hd__and4b_1
*I *477:X O *D sky130_fd_sc_hd__and2b_1
*CAP
1 *480:B1 0.000386169
2 *481:A_N 0
3 *477:X 0.000216633
4 *39:12 0.000602801
5 *480:B1 *463:A 0
6 *480:B1 *478:A_N 0
7 *480:B1 *479:A 0
8 *480:B1 *480:B2 0
9 *480:B1 *480:C1 0
10 *480:B1 *505:CLK 0
11 *480:B1 *511:A 0
12 *480:B1 *53:62 0
13 *480:B1 *60:53 0
14 *480:B1 *73:25 0
15 *39:12 *511:A 0
16 *39:12 *53:53 0
17 *39:12 *53:62 0
18 *39:12 *60:53 0
19 *32:8 *480:B1 0
20 *34:9 *39:12 0
*RES
1 *477:X *39:12 23.8714 
2 *39:12 *481:A_N 18.3 
3 *39:12 *480:B1 27.7107 
*END

*D_NET *40 0.000855564
*CONN
*I *480:B2 I *D sky130_fd_sc_hd__o221a_1
*I *478:X O *D sky130_fd_sc_hd__and2b_1
*CAP
1 *480:B2 0.000427782
2 *478:X 0.000427782
3 *480:B2 *463:A 0
4 *480:B2 *50:9 0
5 *480:B2 *60:49 0
6 *480:B1 *480:B2 0
7 *1:11 *480:B2 0
*RES
1 *478:X *480:B2 46.4571 
*END

*D_NET *41 0.000177504
*CONN
*I *480:C1 I *D sky130_fd_sc_hd__o221a_1
*I *479:Y O *D sky130_fd_sc_hd__nand2_1
*CAP
1 *480:C1 8.87521e-05
2 *479:Y 8.87521e-05
3 *480:C1 *463:A 0
4 *480:B1 *480:C1 0
5 *505:D *480:C1 0
6 *32:8 *480:C1 0
*RES
1 *479:Y *480:C1 38.7786 
*END

*D_NET *42 0.000668595
*CONN
*I *482:B1 I *D sky130_fd_sc_hd__o221a_1
*I *480:X O *D sky130_fd_sc_hd__o221a_1
*CAP
1 *482:B1 0.000334297
2 *480:X 0.000334297
3 *482:B1 *480:A1 0
4 *482:B1 *485:B1_N 0
5 *482:B1 *46:15 0
6 *482:B1 *50:28 0
7 *28:16 *482:B1 0
8 *32:8 *482:B1 0
*RES
1 *480:X *482:B1 44.8679 
*END

*D_NET *43 0.000407278
*CONN
*I *482:B2 I *D sky130_fd_sc_hd__o221a_1
*I *481:X O *D sky130_fd_sc_hd__and4b_1
*CAP
1 *482:B2 0.000203639
2 *481:X 0.000203639
3 *482:A2 *482:B2 0
4 *482:C1 *482:B2 0
5 *28:5 *482:B2 0
*RES
1 *481:X *482:B2 22.85 
*END

*D_NET *44 0.000478021
*CONN
*I *485:A1 I *D sky130_fd_sc_hd__o21ba_1
*I *482:X O *D sky130_fd_sc_hd__o221a_1
*CAP
1 *485:A1 0.000239011
2 *482:X 0.000239011
3 *485:A1 *46:15 0
4 *485:A1 *56:14 0
5 *485:A1 *73:11 0
6 *28:5 *485:A1 0
*RES
1 *482:X *485:A1 42.4571 
*END

*D_NET *45 0.00029348
*CONN
*I *484:A3 I *D sky130_fd_sc_hd__o31a_1
*I *483:X O *D sky130_fd_sc_hd__and3_1
*CAP
1 *484:A3 0.00014674
2 *483:X 0.00014674
3 *475:B *484:A3 0
4 *37:11 *484:A3 0
*RES
1 *483:X *484:A3 21.6 
*END

*D_NET *46 0.00142194
*CONN
*I *485:A2 I *D sky130_fd_sc_hd__o21ba_1
*I *484:X O *D sky130_fd_sc_hd__o31a_1
*CAP
1 *485:A2 0
2 *484:X 0.000710969
3 *46:15 0.000710969
4 *46:15 *502:CLK 0
5 *46:15 *50:28 0
6 *46:15 *56:14 0
7 *46:15 *56:16 0
8 *46:15 *73:11 0
9 *476:A *46:15 0
10 *482:B1 *46:15 0
11 *484:A2 *46:15 0
12 *485:A1 *46:15 0
13 *28:16 *46:15 0
*RES
1 *484:X *46:15 45.55 
2 *46:15 *485:A2 9.3 
*END

*D_NET *47 0.00137618
*CONN
*I *493:B1 I *D sky130_fd_sc_hd__a21oi_1
*I *492:Y O *D sky130_fd_sc_hd__o21ai_1
*CAP
1 *493:B1 0
2 *492:Y 0.000688089
3 *47:15 0.000688089
4 *47:15 *464:A 0
5 *47:15 *493:A1 0
6 *47:15 *500:CLK 0
7 *47:15 *519:A 0
8 *47:15 *525:A 0
9 *47:15 *60:22 0
10 *493:A2 *47:15 0
11 *500:D *47:15 0
*RES
1 *492:Y *47:15 43.4964 
2 *47:15 *493:B1 9.3 
*END

*D_NET *48 0.00267508
*CONN
*I *511:A I *D sky130_fd_sc_hd__clkbuf_16
*I *510:A I *D sky130_fd_sc_hd__clkbuf_16
*I *509:X O *D sky130_fd_sc_hd__clkbuf_16
*CAP
1 *511:A 0.000200564
2 *510:A 0.000816114
3 *509:X 0.00032086
4 *48:7 0.00133754
5 *510:A *472:A1 0
6 *510:A *473:A 0
7 *510:A *473:C_N 0
8 *510:A *487:B 0
9 *510:A *524:A 0
10 *510:A *52:20 0
11 *510:A *60:53 0
12 *511:A *60:53 0
13 *48:7 *466:A_N 0
14 *473:B *510:A 0
15 *480:B1 *511:A 0
16 *29:17 *510:A 0
17 *34:9 *510:A 0
18 *34:9 *511:A 0
19 *39:12 *511:A 0
*RES
1 *509:X *48:7 24.9964 
2 *48:7 *510:A 38.4429 
3 *48:7 *511:A 23.5857 
*END

*D_NET *49 0.00398223
*CONN
*I *502:CLK I *D sky130_fd_sc_hd__dfxtp_2
*I *501:CLK I *D sky130_fd_sc_hd__dfxtp_2
*I *464:A I *D sky130_fd_sc_hd__inv_2
*I *465:A I *D sky130_fd_sc_hd__inv_2
*I *508:A I *D sky130_fd_sc_hd__buf_2
*I *510:X O *D sky130_fd_sc_hd__clkbuf_16
*CAP
1 *502:CLK 0.000434819
2 *501:CLK 0.000100409
3 *464:A 0.00021462
4 *465:A 4.62038e-05
5 *508:A 2.56688e-05
6 *510:X 0.000100306
7 *49:42 0.00111042
8 *49:30 0.00118576
9 *49:19 0.000540095
10 *49:8 0.000223925
11 *464:A *472:A1 0
12 *464:A *492:B1 0
13 *464:A *500:CLK 0
14 *464:A *60:18 0
15 *501:CLK *53:9 0
16 *501:CLK *55:41 0
17 *501:CLK *56:23 0
18 *502:CLK *56:16 0
19 *502:CLK *56:18 0
20 *502:CLK *56:23 0
21 *49:19 *487:A 0
22 *49:30 *487:A 0
23 *49:42 *468:A 0
24 *49:42 *492:B1 0
25 *49:42 *52:20 0
26 io_out[2] *49:19 0
27 io_out[2] *49:30 0
28 *471:A *49:30 0
29 *471:A *49:42 0
30 *476:A *502:CLK 0
31 *476:A *49:42 0
32 *476:C *502:CLK 0
33 *500:D *49:30 0
34 *500:D *49:42 0
35 *33:9 *502:CLK 0
36 *33:9 *49:42 0
37 *33:13 *49:42 0
38 *46:15 *502:CLK 0
39 *47:15 *464:A 0
*RES
1 *510:X *49:8 20.7821 
2 *49:8 *508:A 18.8357 
3 *49:8 *49:19 11.5536 
4 *49:19 *465:A 10.2643 
5 *49:19 *49:30 8.35714 
6 *49:30 *464:A 32.8893 
7 *49:30 *49:42 21.0357 
8 *49:42 *501:CLK 20.7821 
9 *49:42 *502:CLK 29.3893 
*END

*D_NET *50 0.00344481
*CONN
*I *499:A I *D sky130_fd_sc_hd__inv_2
*I *504:CLK I *D sky130_fd_sc_hd__dfxtp_2
*I *503:CLK I *D sky130_fd_sc_hd__dfxtp_2
*I *497:A I *D sky130_fd_sc_hd__inv_2
*I *498:A I *D sky130_fd_sc_hd__inv_2
*I *511:X O *D sky130_fd_sc_hd__clkbuf_16
*CAP
1 *499:A 0.000111681
2 *504:CLK 5.48105e-05
3 *503:CLK 4.53482e-05
4 *497:A 0.000191307
5 *498:A 0.000124066
6 *511:X 0
7 *50:37 0.000525021
8 *50:28 0.000594545
9 *50:9 0.00096137
10 *50:4 0.000836665
11 *497:A *60:8 0
12 *497:A *60:18 0
13 *499:A *507:CLK 0
14 *503:CLK *55:9 0
15 *504:CLK *507:CLK 0
16 *50:9 *478:A_N 0
17 *50:9 *60:43 0
18 *50:9 *60:49 0
19 *50:28 *480:A1 0
20 *50:28 *485:B1_N 0
21 *50:28 *56:14 0
22 *50:37 *480:A1 0
23 *50:37 *486:A2 0
24 *50:37 *507:CLK 0
25 *50:37 *56:8 0
26 *50:37 *56:14 0
27 *480:B2 *50:9 0
28 *482:B1 *50:28 0
29 *486:A3 *50:37 0
30 *504:D *499:A 0
31 *507:D *50:37 0
32 *46:15 *50:28 0
*RES
1 *511:X *50:4 9.3 
2 *50:4 *50:9 13.6071 
3 *50:9 *498:A 11.8893 
4 *50:9 *497:A 32.2821 
5 *50:4 *50:28 13.9107 
6 *50:28 *503:CLK 19.2464 
7 *50:28 *50:37 9.38393 
8 *50:37 *504:CLK 19.6482 
9 *50:37 *499:A 21.3089 
*END

*D_NET *51 0.00127942
*CONN
*I *481:D I *D sky130_fd_sc_hd__and4b_1
*I *479:A I *D sky130_fd_sc_hd__nand2_1
*I *469:A1 I *D sky130_fd_sc_hd__mux2_1
*I *506:Q O *D sky130_fd_sc_hd__dfxtp_1
*CAP
1 *481:D 2.80218e-05
2 *479:A 0.00018193
3 *469:A1 0.00022013
4 *506:Q 6.58832e-05
5 *51:19 0.000353697
6 *51:7 0.000429759
7 *469:A1 *60:53 0
8 *479:A *478:A_N 0
9 *479:A *53:62 0
10 *51:7 *73:30 0
11 *51:19 *73:30 0
12 *480:B1 *479:A 0
13 *1:11 *469:A1 0
14 *34:9 *469:A1 0
*RES
1 *506:Q *51:7 10.675 
2 *51:7 *469:A1 32.5321 
3 *51:7 *51:19 3 
4 *51:19 *479:A 31.9786 
5 *51:19 *481:D 9.94732 
*END

*D_NET *52 0.00121583
*CONN
*I *472:A0 I *D sky130_fd_sc_hd__mux2_1
*I *492:B1 I *D sky130_fd_sc_hd__o21ai_1
*I *473:C_N I *D sky130_fd_sc_hd__or3b_4
*I *500:Q O *D sky130_fd_sc_hd__dfxtp_1
*CAP
1 *472:A0 0
2 *492:B1 0.000131745
3 *473:C_N 0.000206074
4 *500:Q 4.53482e-05
5 *52:20 0.000356492
6 *52:7 0.000476169
7 *473:C_N *473:A 0
8 *492:B1 *472:A1 0
9 *52:20 *473:A 0
10 *464:A *492:B1 0
11 *471:A *52:20 0
12 *493:A2 *492:B1 0
13 *510:A *473:C_N 0
14 *510:A *52:20 0
15 *49:42 *492:B1 0
16 *49:42 *52:20 0
*RES
1 *500:Q *52:7 19.2464 
2 *52:7 *473:C_N 23.2286 
3 *52:7 *52:20 14.25 
4 *52:20 *492:B1 30.4964 
5 *52:20 *472:A0 9.3 
*END

*D_NET *53 0.00511276
*CONN
*I *494:C I *D sky130_fd_sc_hd__and4_1
*I *495:C I *D sky130_fd_sc_hd__and4_1
*I *496:A_N I *D sky130_fd_sc_hd__and4b_1
*I *478:A_N I *D sky130_fd_sc_hd__and2b_1
*I *481:B I *D sky130_fd_sc_hd__and4b_1
*I *466:A_N I *D sky130_fd_sc_hd__and2b_1
*I *474:A I *D sky130_fd_sc_hd__or2_2
*I *470:A I *D sky130_fd_sc_hd__nand2_1
*I *468:A I *D sky130_fd_sc_hd__or3_1
*I *501:Q O *D sky130_fd_sc_hd__dfxtp_2
*CAP
1 *494:C 0.00010971
2 *495:C 6.30833e-05
3 *496:A_N 0
4 *478:A_N 0.000342184
5 *481:B 0
6 *466:A_N 0.000537333
7 *474:A 6.50276e-05
8 *470:A 5.31408e-06
9 *468:A 4.53482e-05
10 *501:Q 0.000116793
11 *53:62 0.000486865
12 *53:53 0.000859264
13 *53:44 0.000320446
14 *53:35 0.000369706
15 *53:16 0.000573301
16 *53:11 0.000323442
17 *53:9 0.000406617
18 *53:7 0.000488325
19 *470:A *54:34 0
20 *470:A *54:50 0
21 *478:A_N *60:43 0
22 *478:A_N *60:49 0
23 *494:C *522:A 0
24 *494:C *55:41 0
25 *495:C *495:B 0
26 *53:9 *496:D 0
27 *53:9 *55:41 0
28 *53:9 *56:23 0
29 *53:11 *496:D 0
30 *53:16 *496:D 0
31 *53:35 *54:34 0
32 *53:44 *477:B 0
33 *53:44 *54:50 0
34 *53:53 *477:B 0
35 *53:62 *73:25 0
36 *473:B *53:16 0
37 *479:A *478:A_N 0
38 *479:A *53:62 0
39 *480:B1 *478:A_N 0
40 *480:B1 *53:62 0
41 *482:A2 *53:53 0
42 *482:A2 *53:62 0
43 *488:A *494:C 0
44 *495:D *495:C 0
45 *495:D *53:11 0
46 *495:D *53:16 0
47 *501:CLK *53:9 0
48 *501:D *53:7 0
49 *501:D *53:9 0