*SPEF "ieee 1481-1999"
*DESIGN "wrapped_vgatest"
*DATE "11:11:11 Fri 11 11, 1111"
*VENDOR "OpenRCX"
*PROGRAM "Parallel Extraction"
*VERSION "1.0"
*DESIGN_FLOW "NAME_SCOPE LOCAL" "PIN_CAP NONE"
*DIVIDER /
*DELIMITER :
*BUS_DELIMITER []
*T_UNIT 1 NS
*C_UNIT 1 PF
*R_UNIT 1 OHM
*L_UNIT 1 HENRY

*NAME_MAP
*1 clk
*2 io_in
*3 io_out[0]
*4 io_out[1]
*5 io_out[2]
*6 io_out[3]
*7 io_out[4]
*8 io_out[5]
*9 io_out[6]
*10 io_out[7]
*11 io_out[8]
*12 io_out[9]
*13 rst
*16 _0000_
*17 _0001_
*18 _0002_
*19 _0003_
*20 _0004_
*21 _0005_
*22 _0006_
*23 _0007_
*24 _0008_
*25 _0009_
*26 _0010_
*27 _0011_
*28 _0012_
*29 _0013_
*30 _0014_
*31 _0015_
*32 _0016_
*33 _0017_
*34 _0018_
*35 _0019_
*36 _0020_
*37 _0021_
*38 _0022_
*39 _0023_
*40 _0024_
*41 _0025_
*42 _0026_
*43 _0027_
*44 _0028_
*45 _0029_
*46 _0030_
*47 _0031_
*48 _0032_
*49 _0033_
*50 _0034_
*51 _0035_
*52 _0036_
*53 _0037_
*54 _0038_
*55 _0039_
*56 _0040_
*57 _0041_
*58 _0042_
*59 _0043_
*60 _0044_
*61 _0045_
*62 _0046_
*63 _0047_
*64 _0048_
*65 _0049_
*66 _0050_
*67 _0051_
*68 _0052_
*69 _0053_
*70 _0054_
*71 _0055_
*72 _0056_
*73 _0057_
*74 _0058_
*75 _0059_
*76 _0060_
*77 _0061_
*78 _0062_
*79 _0063_
*80 _0064_
*81 _0065_
*82 _0066_
*83 _0067_
*84 _0068_
*85 _0069_
*86 _0070_
*87 _0071_
*88 _0072_
*89 _0073_
*90 _0074_
*91 _0075_
*92 _0076_
*93 _0077_
*94 _0078_
*95 _0079_
*96 _0080_
*97 _0081_
*98 _0082_
*99 _0083_
*100 _0084_
*101 _0085_
*102 _0086_
*103 _0087_
*104 _0088_
*105 _0089_
*106 _0090_
*107 _0091_
*108 _0092_
*109 _0093_
*110 _0094_
*111 _0095_
*112 _0096_
*113 _0097_
*114 _0098_
*115 _0099_
*116 _0100_
*117 _0101_
*118 _0102_
*119 _0103_
*120 _0104_
*121 _0105_
*122 _0106_
*123 _0107_
*124 _0108_
*125 _0109_
*126 _0110_
*127 _0111_
*128 _0112_
*129 _0113_
*130 _0114_
*131 _0115_
*132 _0116_
*133 _0117_
*134 _0118_
*135 _0119_
*136 _0120_
*137 _0121_
*138 _0122_
*139 _0123_
*140 _0124_
*141 _0125_
*142 _0126_
*143 _0127_
*144 _0128_
*145 _0129_
*146 _0130_
*147 _0131_
*148 _0132_
*149 _0133_
*150 _0134_
*151 _0135_
*152 _0136_
*153 _0137_
*154 _0138_
*155 _0139_
*156 _0140_
*157 _0141_
*158 _0142_
*159 _0143_
*160 _0144_
*161 _0145_
*162 _0146_
*163 _0147_
*164 _0148_
*165 _0149_
*166 _0150_
*167 _0151_
*168 _0152_
*169 _0153_
*170 _0154_
*171 _0155_
*172 _0156_
*173 _0157_
*174 _0158_
*175 _0159_
*176 _0160_
*177 _0161_
*178 _0162_
*179 _0163_
*180 _0164_
*181 _0165_
*182 _0166_
*183 _0167_
*184 _0168_
*185 _0169_
*186 _0170_
*187 _0171_
*188 _0172_
*189 _0173_
*190 _0174_
*191 _0175_
*192 _0176_
*193 _0177_
*194 _0178_
*195 _0179_
*196 _0180_
*197 _0181_
*198 _0182_
*199 _0183_
*200 _0184_
*201 _0185_
*202 _0186_
*203 _0187_
*204 _0188_
*205 _0189_
*206 _0190_
*207 _0191_
*208 _0192_
*209 _0193_
*210 _0194_
*211 _0195_
*212 _0196_
*213 _0197_
*214 _0198_
*215 _0199_
*216 _0200_
*217 _0201_
*218 _0202_
*219 _0203_
*220 _0204_
*221 _0205_
*222 _0206_
*223 _0207_
*224 _0208_
*225 _0209_
*226 _0210_
*227 _0211_
*228 _0212_
*229 _0213_
*230 _0214_
*231 _0215_
*232 _0216_
*233 _0217_
*234 _0218_
*235 _0219_
*236 _0220_
*237 _0221_
*238 _0222_
*239 _0223_
*240 _0224_
*241 _0225_
*242 _0226_
*243 _0227_
*244 _0228_
*245 _0229_
*246 _0230_
*247 _0231_
*248 _0232_
*249 _0233_
*250 _0234_
*251 _0235_
*252 _0236_
*253 _0237_
*254 _0238_
*255 _0239_
*256 _0240_
*257 _0241_
*258 _0242_
*259 _0243_
*260 _0244_
*261 _0245_
*262 _0246_
*263 _0247_
*264 _0248_
*265 _0249_
*266 _0250_
*267 _0251_
*268 _0252_
*269 _0253_
*270 _0254_
*271 _0255_
*272 _0256_
*273 _0257_
*274 _0258_
*275 _0259_
*276 _0260_
*277 _0261_
*278 _0262_
*279 _0263_
*280 _0264_
*281 _0265_
*282 _0266_
*283 _0267_
*284 _0268_
*285 _0269_
*286 _0270_
*287 _0271_
*288 _0272_
*289 _0273_
*290 _0274_
*291 _0275_
*292 _0276_
*293 _0277_
*294 _0278_
*295 _0279_
*296 _0280_
*297 _0281_
*298 _0282_
*299 _0283_
*300 _0284_
*301 _0285_
*302 _0286_
*303 _0287_
*304 _0288_
*305 _0289_
*306 _0290_
*307 _0291_
*308 _0292_
*309 _0293_
*310 _0294_
*311 _0295_
*312 _0296_
*313 _0297_
*314 _0298_
*315 _0299_
*316 _0300_
*317 _0301_
*318 _0302_
*319 _0303_
*320 _0304_
*321 _0305_
*322 _0306_
*323 _0307_
*324 _0308_
*325 _0309_
*326 _0310_
*327 _0311_
*328 _0312_
*329 _0313_
*330 _0314_
*331 _0315_
*332 _0316_
*333 _0317_
*334 _0318_
*335 _0319_
*336 _0320_
*337 _0321_
*338 _0322_
*339 _0323_
*340 _0324_
*341 _0325_
*342 _0326_
*343 _0327_
*344 _0328_
*345 _0329_
*346 _0330_
*347 _0331_
*348 _0332_
*349 _0333_
*350 _0334_
*351 _0335_
*352 _0336_
*353 _0337_
*354 _0338_
*355 _0339_
*356 _0340_
*357 _0341_
*358 _0342_
*359 _0343_
*360 _0344_
*361 _0345_
*362 _0346_
*363 _0347_
*364 _0348_
*365 _0349_
*366 _0350_
*367 _0351_
*368 _0352_
*369 _0353_
*370 _0354_
*371 _0355_
*372 _0356_
*373 _0357_
*374 _0358_
*375 _0359_
*376 _0360_
*377 _0361_
*378 _0362_
*379 _0363_
*380 _0364_
*381 _0365_
*382 _0366_
*383 _0367_
*384 _0368_
*385 _0369_
*386 _0370_
*387 _0371_
*388 _0372_
*389 _0373_
*390 _0374_
*391 _0375_
*392 _0376_
*393 _0377_
*394 _0378_
*395 _0379_
*396 _0380_
*397 _0381_
*398 _0382_
*399 _0383_
*400 _0384_
*401 _0385_
*402 _0386_
*403 _0387_
*404 _0388_
*405 _0389_
*406 _0390_
*407 _0391_
*408 _0392_
*409 _0393_
*410 _0394_
*411 _0395_
*412 _0396_
*413 _0397_
*414 _0398_
*415 _0399_
*416 _0400_
*417 _0401_
*418 _0402_
*419 _0403_
*420 _0404_
*421 _0405_
*422 _0406_
*423 _0407_
*424 _0408_
*425 _0409_
*426 _0410_
*427 _0411_
*428 _0412_
*429 _0413_
*430 _0414_
*431 _0415_
*432 _0416_
*433 _0417_
*434 _0418_
*435 _0419_
*436 _0420_
*437 _0421_
*438 _0422_
*439 _0423_
*440 _0424_
*441 _0425_
*442 _0426_
*443 _0427_
*444 _0428_
*445 _0429_
*446 _0430_
*447 _0431_
*448 _0432_
*449 _0433_
*450 _0434_
*451 _0435_
*452 _0436_
*453 _0437_
*454 _0438_
*455 _0439_
*456 _0440_
*457 _0441_
*458 _0442_
*459 _0443_
*460 _0444_
*461 _0445_
*462 _0446_
*463 _0447_
*464 _0448_
*465 _0449_
*466 _0450_
*467 _0451_
*468 _0452_
*469 _0453_
*470 _0454_
*471 _0455_
*472 _0456_
*473 _0457_
*474 _0458_
*475 _0459_
*476 _0460_
*477 _0461_
*478 _0462_
*479 _0463_
*480 _0464_
*481 _0465_
*482 _0466_
*483 _0467_
*484 _0468_
*485 _0469_
*486 _0470_
*487 _0471_
*488 _0472_
*489 _0473_
*490 _0474_
*491 _0475_
*492 _0476_
*493 _0477_
*494 _0478_
*495 _0479_
*496 _0480_
*497 _0481_
*498 _0482_
*499 _0483_
*500 _0484_
*501 _0485_
*502 _0486_
*503 _0487_
*504 _0488_
*505 _0489_
*506 _0490_
*507 _0491_
*508 _0492_
*509 _0493_
*510 _0494_
*511 _0495_
*512 _0496_
*513 _0497_
*514 _0498_
*515 _0499_
*516 _0500_
*517 _0501_
*518 _0502_
*519 _0503_
*520 _0504_
*521 _0505_
*522 _0506_
*523 _0507_
*524 _0508_
*525 _0509_
*526 _0510_
*527 _0511_
*528 _0512_
*529 _0513_
*530 _0514_
*531 _0515_
*532 _0516_
*533 _0517_
*534 _0518_
*535 _0519_
*536 _0520_
*537 _0521_
*538 _0522_
*539 _0523_
*540 _0524_
*541 _0525_
*542 _0526_
*543 _0527_
*544 _0528_
*545 _0529_
*546 _0530_
*547 _0531_
*548 _0532_
*549 _0533_
*550 _0534_
*551 _0535_
*552 _0536_
*553 _0537_
*554 _0538_
*555 _0539_
*556 _0540_
*557 _0541_
*558 _0542_
*559 _0543_
*560 _0544_
*561 _0545_
*562 _0546_
*563 _0547_
*564 _0548_
*565 _0549_
*566 _0550_
*567 _0551_
*568 _0552_
*569 _0553_
*570 _0554_
*571 _0555_
*572 _0556_
*573 _0557_
*574 _0558_
*575 _0559_
*576 _0560_
*577 _0561_
*578 _0562_
*579 _0563_
*580 _0564_
*581 _0565_
*582 _0566_
*583 _0567_
*584 _0568_
*585 _0569_
*586 _0570_
*587 _0571_
*588 _0572_
*589 _0573_
*590 _0574_
*591 _0575_
*592 _0576_
*593 _0577_
*594 _0578_
*595 _0579_
*596 _0580_
*597 _0581_
*598 _0582_
*599 _0583_
*600 _0584_
*601 _0585_
*602 _0586_
*603 _0587_
*604 _0588_
*605 _0589_
*606 _0590_
*607 _0591_
*608 _0592_
*609 _0593_
*610 _0594_
*611 _0595_
*612 _0596_
*613 _0597_
*614 _0598_
*615 _0599_
*616 _0600_
*617 _0601_
*618 _0602_
*619 _0603_
*620 _0604_
*621 _0605_
*622 _0606_
*623 _0607_
*624 _0608_
*625 _0609_
*626 _0610_
*627 _0611_
*628 _0612_
*629 _0613_
*630 _0614_
*631 _0615_
*632 _0616_
*633 _0617_
*634 _0618_
*635 _0619_
*636 _0620_
*637 _0621_
*638 _0622_
*639 _0623_
*640 _0624_
*641 _0625_
*642 _0626_
*643 _0627_
*644 _0628_
*645 _0629_
*646 _0630_
*647 _0631_
*648 _0632_
*649 _0633_
*650 _0634_
*651 _0635_
*652 _0636_
*653 _0637_
*654 _0638_
*655 _0639_
*656 _0640_
*657 _0641_
*658 _0642_
*659 _0643_
*660 _0644_
*661 _0645_
*662 _0646_
*663 _0647_
*664 _0648_
*665 _0649_
*666 _0650_
*667 _0651_
*668 _0652_
*669 _0653_
*670 _0654_
*671 _0655_
*672 _0656_
*673 _0657_
*674 _0658_
*675 _0659_
*676 _0660_
*677 _0661_
*678 _0662_
*679 _0663_
*680 _0664_
*681 _0665_
*682 _0666_
*683 _0667_
*684 _0668_
*685 _0669_
*686 _0670_
*687 _0671_
*688 _0672_
*689 _0673_
*690 _0674_
*691 _0675_
*692 _0676_
*693 _0677_
*694 _0678_
*695 _0679_
*696 _0680_
*697 _0681_
*698 _0682_
*699 _0683_
*700 _0684_
*701 _0685_
*702 _0686_
*703 _0687_
*704 _0688_
*705 _0689_
*706 _0690_
*707 _0691_
*708 _0692_
*709 _0693_
*710 _0694_
*711 _0695_
*712 _0696_
*713 _0697_
*714 _0698_
*715 _0699_
*716 _0700_
*717 _0701_
*718 _0702_
*719 _0703_
*720 _0704_
*721 _0705_
*722 _0706_
*723 _0707_
*724 _0708_
*725 _0709_
*726 _0710_
*727 _0711_
*728 _0712_
*729 _0713_
*730 _0714_
*731 _0715_
*732 _0716_
*733 _0717_
*734 _0718_
*735 _0719_
*736 _0720_
*737 _0721_
*738 _0722_
*739 _0723_
*740 _0724_
*741 _0725_
*742 _0726_
*743 _0727_
*744 _0728_
*745 _0729_
*746 _0730_
*747 _0731_
*748 _0732_
*749 _0733_
*750 _0734_
*751 _0735_
*752 _0736_
*753 _0737_
*754 _0738_
*755 _0739_
*756 _0740_
*757 _0741_
*758 _0742_
*759 _0743_
*760 _0744_
*761 _0745_
*762 _0746_
*763 _0747_
*764 _0748_
*765 _0749_
*766 _0750_
*767 _0751_
*768 _0752_
*769 _0753_
*770 _0754_
*771 _0755_
*772 _0756_
*773 _0757_
*774 _0758_
*775 _0759_
*776 _0760_
*777 _0761_
*778 _0762_
*779 _0763_
*780 _0764_
*781 _0765_
*782 _0766_
*783 _0767_
*784 _0768_
*785 _0769_
*786 _0770_
*787 _0771_
*788 _0772_
*789 _0773_
*790 _0774_
*791 _0775_
*792 _0776_
*793 _0777_
*794 _0778_
*795 _0779_
*796 _0780_
*797 _0781_
*798 _0782_
*799 _0783_
*800 _0784_
*801 _0785_
*802 _0786_
*803 _0787_
*804 _0788_
*805 _0789_
*806 _0790_
*807 _0791_
*808 _0792_
*809 _0793_
*810 _0794_
*811 _0795_
*812 _0796_
*813 _0797_
*814 _0798_
*815 _0799_
*816 _0800_
*817 _0801_
*818 _0802_
*819 _0803_
*820 _0804_
*821 _0805_
*822 _0806_
*823 _0807_
*824 _0808_
*825 _0809_
*826 _0810_
*827 _0811_
*828 _0812_
*829 _0813_
*830 _0814_
*831 _0815_
*832 _0816_
*833 _0817_
*834 _0818_
*835 _0819_
*836 _0820_
*837 _0821_
*838 _0822_
*839 _0823_
*840 _0824_
*841 _0825_
*842 _0826_
*843 _0827_
*844 _0828_
*845 _0829_
*846 _0830_
*847 _0831_
*848 _0832_
*849 _0833_
*850 _0834_
*851 _0835_
*852 _0836_
*853 _0837_
*854 _0838_
*855 _0839_
*856 _0840_
*857 _0841_
*858 _0842_
*859 _0843_
*860 _0844_
*861 _0845_
*862 _0846_
*863 _0847_
*864 _0848_
*865 _0849_
*866 _0850_
*867 _0851_
*868 _0852_
*869 _0853_
*870 _0854_
*871 _0855_
*872 _0856_
*873 _0857_
*874 _0858_
*875 _0859_
*876 _0860_
*877 _0861_
*878 _0862_
*879 _0863_
*880 _0864_
*881 _0865_
*882 _0866_
*883 _0867_
*884 _0868_
*885 _0869_
*886 _0870_
*887 _0871_
*888 _0872_
*889 _0873_
*890 _0874_
*891 _0875_
*892 _0876_
*893 _0877_
*894 _0878_
*895 _0879_
*896 _0880_
*897 _0881_
*898 _0882_
*899 _0883_
*900 _0884_
*901 _0885_
*902 _0886_
*903 _0887_
*904 _0888_
*905 _0889_
*906 _0890_
*907 _0891_
*908 _0892_
*909 _0893_
*910 _0894_
*911 _0895_
*912 _0896_
*913 _0897_
*914 _0898_
*915 _0899_
*916 _0900_
*917 _0901_
*918 _0902_
*919 _0903_
*920 _0904_
*921 _0905_
*922 _0906_
*923 _0907_
*924 _0908_
*925 _0909_
*926 _0910_
*927 _0911_
*928 _0912_
*929 _0913_
*930 _0914_
*931 _0915_
*932 _0916_
*933 _0917_
*934 _0918_
*935 _0919_
*936 _0920_
*937 _0921_
*938 _0922_
*939 _0923_
*940 _0924_
*941 _0925_
*942 _0926_
*943 _0927_
*944 _0928_
*945 _0929_
*946 _0930_
*947 _0931_
*948 _0932_
*949 _0933_
*950 _0934_
*951 _0935_
*952 _0936_
*953 _0937_
*954 _0938_
*955 _0939_
*956 _0940_
*957 _0941_
*958 _0942_
*959 _0943_
*960 _0944_
*961 _0945_
*962 _0946_
*963 _0947_
*964 _0948_
*965 _0949_
*966 _0950_
*967 _0951_
*968 _0952_
*969 _0953_
*970 _0954_
*971 _0955_
*972 _0956_
*973 _0957_
*974 _0958_
*975 _0959_
*976 _0960_
*977 _0961_
*978 _0962_
*979 _0963_
*980 _0964_
*981 _0965_
*982 _0966_
*983 _0967_
*984 _0968_
*985 _0969_
*986 _0970_
*987 _0971_
*988 _0972_
*989 _0973_
*990 _0974_
*991 _0975_
*992 _0976_
*993 _0977_
*994 _0978_
*995 _0979_
*996 _0980_
*997 _0981_
*998 _0982_
*999 _0983_
*1000 _0984_
*1001 _0985_
*1002 _0986_
*1003 _0987_
*1004 _0988_
*1005 _0989_
*1006 _0990_
*1007 _0991_
*1008 _0992_
*1009 _0993_
*1010 _0994_
*1011 _0995_
*1012 _0996_
*1013 _0997_
*1014 _0998_
*1015 _0999_
*1016 _1000_
*1017 _1001_
*1018 _1002_
*1019 _1003_
*1020 _1004_
*1021 _1005_
*1022 _1006_
*1023 _1007_
*1024 _1008_
*1025 _1009_
*1026 _1010_
*1027 _1011_
*1028 _1012_
*1029 _1013_
*1030 _1014_
*1031 _1015_
*1032 _1016_
*1033 _1017_
*1034 _1018_
*1035 _1019_
*1036 _1020_
*1037 _1021_
*1038 _1022_
*1039 _1023_
*1040 _1024_
*1041 _1025_
*1042 _1026_
*1043 _1027_
*1044 _1028_
*1045 _1029_
*1046 _1030_
*1047 _1031_
*1048 _1032_
*1049 _1033_
*1050 _1034_
*1051 _1035_
*1052 _1036_
*1053 _1037_
*1054 _1038_
*1055 _1039_
*1056 _1040_
*1057 _1041_
*1058 _1042_
*1059 _1043_
*1060 _1044_
*1061 _1045_
*1062 _1046_
*1063 _1047_
*1064 _1048_
*1065 _1049_
*1066 _1050_
*1067 _1051_
*1068 _1052_
*1069 _1053_
*1070 _1054_
*1071 _1055_
*1072 _1056_
*1073 _1057_
*1074 _1058_
*1075 _1059_
*1076 _1060_
*1077 _1061_
*1078 _1062_
*1079 _1063_
*1080 _1064_
*1081 _1065_
*1082 _1066_
*1083 _1067_
*1084 _1068_
*1085 _1069_
*1086 _1070_
*1087 _1071_
*1088 _1072_
*1089 _1073_
*1090 _1074_
*1091 _1075_
*1092 _1076_
*1093 _1077_
*1094 _1078_
*1095 _1079_
*1096 _1080_
*1097 _1081_
*1098 _1082_
*1099 _1083_
*1100 _1084_
*1101 _1085_
*1102 _1086_
*1103 _1087_
*1104 _1088_
*1105 _1089_
*1106 _1090_
*1107 _1091_
*1108 _1092_
*1109 _1093_
*1110 _1094_
*1111 _1095_
*1112 _1096_
*1113 _1097_
*1114 _1098_
*1115 _1099_
*1116 _1100_
*1117 _1101_
*1118 _1102_
*1119 _1103_
*1120 _1104_
*1121 _1105_
*1122 _1106_
*1123 _1107_
*1124 _1108_
*1125 _1109_
*1126 _1110_
*1127 _1111_
*1128 _1112_
*1129 _1113_
*1130 _1114_
*1131 _1115_
*1132 _1116_
*1133 _1117_
*1134 _1118_
*1135 _1119_
*1136 _1120_
*1137 _1121_
*1138 _1122_
*1139 _1123_
*1140 _1124_
*1141 _1125_
*1142 _1126_
*1143 _1127_
*1144 _1128_
*1145 _1129_
*1146 _1130_
*1147 _1131_
*1148 _1132_
*1149 _1133_
*1150 _1134_
*1151 _1135_
*1152 _1136_
*1153 _1137_
*1154 _1138_
*1155 _1139_
*1156 _1140_
*1157 _1141_
*1158 _1142_
*1159 _1143_
*1160 _1144_
*1161 _1145_
*1162 _1146_
*1163 _1147_
*1164 _1148_
*1165 _1149_
*1166 _1150_
*1167 _1151_
*1168 _1152_
*1169 _1153_
*1170 _1154_
*1171 _1155_
*1172 _1156_
*1173 _1157_
*1174 _1158_
*1175 _1159_
*1176 _1160_
*1177 _1161_
*1178 _1162_
*1179 _1163_
*1180 _1164_
*1181 _1165_
*1182 _1166_
*1183 _1167_
*1184 _1168_
*1185 _1169_
*1186 _1170_
*1187 _1171_
*1188 _1172_
*1189 _1173_
*1190 _1174_
*1191 _1175_
*1192 _1176_
*1193 _1177_
*1194 _1178_
*1195 _1179_
*1196 _1180_
*1197 _1181_
*1198 _1182_
*1199 _1183_
*1200 _1184_
*1201 _1185_
*1202 _1186_
*1203 _1187_
*1204 _1188_
*1205 _1189_
*1206 _1190_
*1207 _1191_
*1208 _1192_
*1209 _1193_
*1210 _1194_
*1211 _1195_
*1212 _1196_
*1213 _1197_
*1214 _1198_
*1215 _1199_
*1216 _1200_
*1217 _1201_
*1218 _1202_
*1219 _1203_
*1220 _1204_
*1221 _1205_
*1222 _1206_
*1223 _1207_
*1224 _1208_
*1225 _1209_
*1226 _1210_
*1227 _1211_
*1228 _1212_
*1229 _1213_
*1230 _1214_
*1231 _1215_
*1232 _1216_
*1233 _1217_
*1234 _1218_
*1235 _1219_
*1236 _1220_
*1237 _1221_
*1238 _1222_
*1239 _1223_
*1240 _1224_
*1241 _1225_
*1242 _1226_
*1243 _1227_
*1244 _1228_
*1245 _1229_
*1246 _1230_
*1247 _1231_
*1248 _1232_
*1249 _1233_
*1250 _1234_
*1251 _1235_
*1252 _1236_
*1253 _1237_
*1254 _1238_
*1255 _1239_
*1256 _1240_
*1257 _1241_
*1258 _1242_
*1259 _1243_
*1260 _1244_
*1261 _1245_
*1262 _1246_
*1263 _1247_
*1264 _1248_
*1265 _1249_
*1266 _1250_
*1267 _1251_
*1268 _1252_
*1269 _1253_
*1270 _1254_
*1271 _1255_
*1272 _1256_
*1273 _1257_
*1274 _1258_
*1275 _1259_
*1276 _1260_
*1277 _1261_
*1278 _1262_
*1279 _1263_
*1280 _1264_
*1281 _1265_
*1282 _1266_
*1283 _1267_
*1284 _1268_
*1285 _1269_
*1286 _1270_
*1287 _1271_
*1288 _1272_
*1289 _1273_
*1290 _1274_
*1291 _1275_
*1292 _1276_
*1293 _1277_
*1294 _1278_
*1295 _1279_
*1296 _1280_
*1297 _1281_
*1298 _1282_
*1299 _1283_
*1300 _1284_
*1301 _1285_
*1302 _1286_
*1303 _1287_
*1304 _1288_
*1305 _1289_
*1306 _1290_
*1307 _1291_
*1308 _1292_
*1309 _1293_
*1310 _1294_
*1311 _1295_
*1312 _1296_
*1313 _1297_
*1314 _1298_
*1315 _1299_
*1316 _1300_
*1317 _1301_
*1318 _1302_
*1319 _1303_
*1320 _1304_
*1321 _1305_
*1322 _1306_
*1323 _1307_
*1324 _1308_
*1325 _1309_
*1326 _1310_
*1327 _1311_
*1328 _1312_
*1329 _1313_
*1330 _1314_
*1331 _1315_
*1332 _1316_
*1333 _1317_
*1334 _1318_
*1335 _1319_
*1336 _1320_
*1337 _1321_
*1338 _1322_
*1339 _1323_
*1340 _1324_
*1341 _1325_
*1342 _1326_
*1343 _1327_
*1344 _1328_
*1345 _1329_
*1346 _1330_
*1347 _1331_
*1348 _1332_
*1349 _1333_
*1350 _1334_
*1351 _1335_
*1352 _1336_
*1353 _1337_
*1354 _1338_
*1355 _1339_
*1356 _1340_
*1357 _1341_
*1358 _1342_
*1359 _1343_
*1360 _1344_
*1361 _1345_
*1362 _1346_
*1363 _1347_
*1364 _1348_
*1365 _1349_
*1366 _1350_
*1367 _1351_
*1368 _1352_
*1369 _1353_
*1370 _1354_
*1371 _1355_
*1372 _1356_
*1373 _1357_
*1374 _1358_
*1375 _1359_
*1376 _1360_
*1377 _1361_
*1378 _1362_
*1379 _1363_
*1380 _1364_
*1381 _1365_
*1382 _1366_
*1383 _1367_
*1384 _1368_
*1385 _1369_
*1386 _1370_
*1387 _1371_
*1388 _1372_
*1389 _1373_
*1390 _1374_
*1391 _1375_
*1392 _1376_
*1393 _1377_
*1394 _1378_
*1395 _1379_
*1396 _1380_
*1397 _1381_
*1398 _1382_
*1399 _1383_
*1400 _1384_
*1401 _1385_
*1402 _1386_
*1403 _1387_
*1404 _1388_
*1405 _1389_
*1406 _1390_
*1407 _1391_
*1408 _1392_
*1409 _1393_
*1410 _1394_
*1411 _1395_
*1412 _1396_
*1413 _1397_
*1414 _1398_
*1415 _1399_
*1416 _1400_
*1417 _1401_
*1418 _1402_
*1419 _1403_
*1420 _1404_
*1421 _1405_
*1422 _1406_
*1423 _1407_
*1424 _1408_
*1425 _1409_
*1426 _1410_
*1427 _1411_
*1428 _1412_
*1429 _1413_
*1430 _1414_
*1431 _1415_
*1432 _1416_
*1433 _1417_
*1434 _1418_
*1435 _1419_
*1436 _1420_
*1437 _1421_
*1438 _1422_
*1439 _1423_
*1440 _1424_
*1441 _1425_
*1442 _1426_
*1443 _1427_
*1444 _1428_
*1445 _1429_
*1446 _1430_
*1447 _1431_
*1448 _1432_
*1449 _1433_
*1450 _1434_
*1451 _1435_
*1452 _1436_
*1453 _1437_
*1454 _1438_
*1455 _1439_
*1456 _1440_
*1457 _1441_
*1458 _1442_
*1459 _1443_
*1460 _1444_
*1461 _1445_
*1462 _1446_
*1463 _1447_
*1464 _1448_
*1465 _1449_
*1466 _1450_
*1467 _1451_
*1468 _1452_
*1469 _1453_
*1470 _1454_
*1471 _1455_
*1472 _1456_
*1473 _1457_
*1474 _1458_
*1475 _1459_
*1476 _1460_
*1477 _1461_
*1478 _1462_
*1479 _1463_
*1480 _1464_
*1481 _1465_
*1482 _1466_
*1483 _1467_
*1484 _1468_
*1485 _1469_
*1486 _1470_
*1487 _1471_
*1488 _1472_
*1489 _1473_
*1490 _1474_
*1491 _1475_
*1492 _1476_
*1493 _1477_
*1494 _1478_
*1495 _1479_
*1496 _1480_
*1497 _1481_
*1498 _1482_
*1499 _1483_
*1500 _1484_
*1501 _1485_
*1502 _1486_
*1503 _1487_
*1504 _1488_
*1505 _1489_
*1506 _1490_
*1507 _1491_
*1508 _1492_
*1509 _1493_
*1510 _1494_
*1511 _1495_
*1512 _1496_
*1513 _1497_
*1514 _1498_
*1515 _1499_
*1516 _1500_
*1517 _1501_
*1518 _1502_
*1519 _1503_
*1520 _1504_
*1521 _1505_
*1522 _1506_
*1523 _1507_
*1524 _1508_
*1525 _1509_
*1526 _1510_
*1527 _1511_
*1528 _1512_
*1529 _1513_
*1530 _1514_
*1531 _1515_
*1532 _1516_
*1533 _1517_
*1534 _1518_
*1535 _1519_
*1536 _1520_
*1537 _1521_
*1538 _1522_
*1539 _1523_
*1540 _1524_
*1541 _1525_
*1542 _1526_
*1543 _1527_
*1544 _1528_
*1545 _1529_
*1546 _1530_
*1547 _1531_
*1548 _1532_
*1549 _1533_
*1550 _1534_
*1551 _1535_
*1552 _1536_
*1553 _1537_
*1554 _1538_
*1555 _1539_
*1556 _1540_
*1557 _1541_
*1558 _1542_
*1559 _1543_
*1560 _1544_
*1561 _1545_
*1562 _1546_
*1563 _1547_
*1564 _1548_
*1565 _1549_
*1566 _1550_
*1567 _1551_
*1568 _1552_
*1569 _1553_
*1570 _1554_
*1571 _1555_
*1572 _1556_
*1573 _1557_
*1574 _1558_
*1575 _1559_
*1576 _1560_
*1577 _1561_
*1578 _1562_
*1579 _1563_
*1580 _1564_
*1581 _1565_
*1582 _1566_
*1583 _1567_
*1584 _1568_
*1585 _1569_
*1586 _1570_
*1587 _1571_
*1588 _1572_
*1589 _1573_
*1590 _1574_
*1591 _1575_
*1592 _1576_
*1593 _1577_
*1594 _1578_
*1595 _1579_
*1596 _1580_
*1597 _1581_
*1598 _1582_
*1599 _1583_
*1600 _1584_
*1601 _1585_
*1602 _1586_
*1603 _1587_
*1604 _1588_
*1605 _1589_
*1606 _1590_
*1607 _1591_
*1608 _1592_
*1609 _1593_
*1610 _1594_
*1611 _1595_
*1612 _1596_
*1613 _1597_
*1614 _1598_
*1615 _1599_
*1616 _1600_
*1617 _1601_
*1618 _1602_
*1619 _1603_
*1620 _1604_
*1621 _1605_
*1622 _1606_
*1623 _1607_
*1624 _1608_
*1625 _1609_
*1626 _1610_
*1627 _1611_
*1628 _1612_
*1629 _1613_
*1630 _1614_
*1631 _1615_
*1632 _1616_
*1633 _1617_
*1634 _1618_
*1635 _1619_
*1636 _1620_
*1637 _1621_
*1638 _1622_
*1639 _1623_
*1640 _1624_
*1641 _1625_
*1642 _1626_
*1643 _1627_
*1644 _1628_
*1645 _1629_
*1646 _1630_
*1647 _1631_
*1648 _1632_
*1649 _1633_
*1650 _1634_
*1651 _1635_
*1652 _1636_
*1653 _1637_
*1654 _1638_
*1655 _1639_
*1656 _1640_
*1657 _1641_
*1658 _1642_
*1659 _1643_
*1660 _1644_
*1661 _1645_
*1662 _1646_
*1663 _1647_
*1664 _1648_
*1665 _1649_
*1666 _1650_
*1667 _1651_
*1668 _1652_
*1669 _1653_
*1670 _1654_
*1671 _1655_
*1672 _1656_
*1673 _1657_
*1674 _1658_
*1675 _1659_
*1676 _1660_
*1677 _1661_
*1678 _1662_
*1679 _1663_
*1680 _1664_
*1681 _1665_
*1682 _1666_
*1683 _1667_
*1684 _1668_
*1685 _1669_
*1686 _1670_
*1687 _1671_
*1688 _1672_
*1689 _1673_
*1690 _1674_
*1691 _1675_
*1692 _1676_
*1693 _1677_
*1694 _1678_
*1695 _1679_
*1696 _1680_
*1697 _1681_
*1698 _1682_
*1699 _1683_
*1700 _1684_
*1701 _1685_
*1702 _1686_
*1703 _1687_
*1704 _1688_
*1705 _1689_
*1706 _1690_
*1707 _1691_
*1708 _1692_
*1709 _1693_
*1710 _1694_
*1711 _1695_
*1712 _1696_
*1713 _1697_
*1714 _1698_
*1715 _1699_
*1716 _1700_
*1717 _1701_
*1718 _1702_
*1719 _1703_
*1720 _1704_
*1721 _1705_
*1722 _1706_
*1723 _1707_
*1724 _1708_
*1725 _1709_
*1726 _1710_
*1727 _1711_
*1728 _1712_
*1729 _1713_
*1730 _1714_
*1731 _1715_
*1732 _1716_
*1733 _1717_
*1734 _1718_
*1735 _1719_
*1736 _1720_
*1737 _1721_
*1738 _1722_
*1739 _1723_
*1740 _1724_
*1741 _1725_
*1742 _1726_
*1743 _1727_
*1744 _1728_
*1745 _1729_
*1746 _1730_
*1747 _1731_
*1748 _1732_
*1749 _1733_
*1750 _1734_
*1751 _1735_
*1752 _1736_
*1753 _1737_
*1754 _1738_
*1755 _1739_
*1756 _1740_
*1757 _1741_
*1758 _1742_
*1759 _1743_
*1760 _1744_
*1761 _1745_
*1762 _1746_
*1763 _1747_
*1764 _1748_
*1765 _1749_
*1766 _1750_
*1767 _1751_
*1768 _1752_
*1769 _1753_
*1770 _1754_
*1771 _1755_
*1772 _1756_
*1773 _1757_
*1774 _1758_
*1775 _1759_
*1776 _1760_
*1777 _1761_
*1778 _1762_
*1779 _1763_
*1780 _1764_
*1781 _1765_
*1782 _1766_
*1783 _1767_
*1784 _1768_
*1785 _1769_
*1786 _1770_
*1787 _1771_
*1788 _1772_
*1789 _1773_
*1790 _1774_
*1791 _1775_
*1792 _1776_
*1793 _1777_
*1794 _1778_
*1795 _1779_
*1796 _1780_
*1797 _1781_
*1798 _1782_
*1799 _1783_
*1800 _1784_
*1801 _1785_
*1802 _1786_
*1803 _1787_
*1804 _1788_
*1805 _1789_
*1806 _1790_
*1807 _1791_
*1808 _1792_
*1809 _1793_
*1810 _1794_
*1811 _1795_
*1812 _1796_
*1813 _1797_
*1814 _1798_
*1815 _1799_
*1816 _1800_
*1817 _1801_
*1818 _1802_
*1819 _1803_
*1820 _1804_
*1821 _1805_
*1822 _1806_
*1823 _1807_
*1824 _1808_
*1825 _1809_
*1826 _1810_
*1827 _1811_
*1828 _1812_
*1829 _1813_
*1830 _1814_
*1831 _1815_
*1832 _1816_
*1833 _1817_
*1834 _1818_
*1835 _1819_
*1836 _1820_
*1837 _1821_
*1838 _1822_
*1839 _1823_
*1840 _1824_
*1841 _1825_
*1842 _1826_
*1843 _1827_
*1844 _1828_
*1845 _1829_
*1846 _1830_
*1847 _1831_
*1848 _1832_
*1849 _1833_
*1850 _1834_
*1851 _1835_
*1852 _1836_
*1853 _1837_
*1854 _1838_
*1855 _1839_
*1856 _1840_
*1857 _1841_
*1858 _1842_
*1859 _1843_
*1860 _1844_
*1861 _1845_
*1862 _1846_
*1863 _1847_
*1864 _1848_
*1865 _1849_
*1866 _1850_
*1867 _1851_
*1868 _1852_
*1869 _1853_
*1870 _1854_
*1871 _1855_
*1872 _1856_
*1873 _1857_
*1874 _1858_
*1875 _1859_
*1876 _1860_
*1877 _1861_
*1878 _1862_
*1879 _1863_
*1880 _1864_
*1881 _1865_
*1882 _1866_
*1883 _1867_
*1884 _1868_
*1885 _1869_
*1886 _1870_
*1887 _1871_
*1888 _1872_
*1889 _1873_
*1890 _1874_
*1891 _1875_
*1892 _1876_
*1893 _1877_
*1894 _1878_
*1895 _1879_
*1896 _1880_
*1897 _1881_
*1898 _1882_
*1899 _1883_
*1900 _1884_
*1901 _1885_
*1902 _1886_
*1903 _1887_
*1904 _1888_
*1905 _1889_
*1906 _1890_
*1907 _1891_
*1908 _1892_
*1909 _1893_
*1910 _1894_
*1911 _1895_
*1912 _1896_
*1913 _1897_
*1914 _1898_
*1915 _1899_
*1916 _1900_
*1917 _1901_
*1918 _1902_
*1919 _1903_
*1920 _1904_
*1921 _1905_
*1922 _1906_
*1923 _1907_
*1924 _1908_
*1925 _1909_
*1926 _1910_
*1927 _1911_
*1928 _1912_
*1929 _1913_
*1930 _1914_
*1931 _1915_
*1932 _1916_
*1933 _1917_
*1934 _1918_
*1935 _1919_
*1936 _1920_
*1937 _1921_
*1938 _1922_
*1939 _1923_
*1940 _1924_
*1941 _1925_
*1942 _1926_
*1943 _1927_
*1944 _1928_
*1945 _1929_
*1946 _1930_
*1947 _1931_
*1948 _1932_
*1949 _1933_
*1950 _1934_
*1951 _1935_
*1952 _1936_
*1953 _1937_
*1954 _1938_
*1955 _1939_
*1956 _1940_
*1957 _1941_
*1958 _1942_
*1959 _1943_
*1960 _1944_
*1961 _1945_
*1962 _1946_
*1963 _1947_
*1964 _1948_
*1965 _1949_
*1966 _1950_
*1967 _1951_
*1968 _1952_
*1969 _1953_
*1970 _1954_
*1971 _1955_
*1972 _1956_
*1973 _1957_
*1974 _1958_
*1975 _1959_
*1976 _1960_
*1977 _1961_
*1978 _1962_
*1979 _1963_
*1980 _1964_
*1981 _1965_
*1982 _1966_
*1983 _1967_
*1984 _1968_
*1985 _1969_
*1986 _1970_
*1987 _1971_
*1988 _1972_
*1989 _1973_
*1990 _1974_
*1991 _1975_
*1992 _1976_
*1993 _1977_
*1994 _1978_
*1995 _1979_
*1996 _1980_
*1997 _1981_
*1998 _1982_
*1999 _1983_
*2000 _1984_
*2001 _1985_
*2002 _1986_
*2003 _1987_
*2004 _1988_
*2005 _1989_
*2006 _1990_
*2007 _1991_
*2008 _1992_
*2009 _1993_
*2010 _1994_
*2011 _1995_
*2012 _1996_
*2013 _1997_
*2014 _1998_
*2015 _1999_
*2016 _2000_
*2017 _2001_
*2018 _2002_
*2019 _2003_
*2020 _2004_
*2021 _2005_
*2022 _2006_
*2023 _2007_
*2024 _2008_
*2025 _2009_
*2026 _2010_
*2027 _2011_
*2028 _2012_
*2029 _2013_
*2030 _2014_
*2031 _2015_
*2032 _2016_
*2033 _2017_
*2034 _2018_
*2035 _2019_
*2036 _2020_
*2037 _2021_
*2038 _2022_
*2039 _2023_
*2040 _2024_
*2041 _2025_
*2042 _2026_
*2043 _2027_
*2044 _2028_
*2045 _2029_
*2046 _2030_
*2047 _2031_
*2048 _2032_
*2049 _2033_
*2050 _2034_
*2051 _2035_
*2052 _2036_
*2053 _2037_
*2054 clknet_0_clk
*2055 clknet_2_0__leaf_clk
*2056 clknet_2_1__leaf_clk
*2057 clknet_2_2__leaf_clk
*2058 clknet_2_3__leaf_clk
*2059 net1
*2060 net10
*2061 net100
*2062 net101
*2063 net102
*2064 net103
*2065 net104
*2066 net105
*2067 net106
*2068 net107
*2069 net108
*2070 net109
*2071 net11
*2072 net110
*2073 net111
*2074 net112
*2075 net113
*2076 net114
*2077 net115
*2078 net116
*2079 net117
*2080 net118
*2081 net119
*2082 net12
*2083 net120
*2084 net121
*2085 net122
*2086 net123
*2087 net124
*2088 net125
*2089 net126
*2090 net127
*2091 net128
*2092 net129
*2093 net13
*2094 net130
*2095 net131
*2096 net132
*2097 net133
*2098 net134
*2099 net135
*2100 net136
*2101 net137
*2102 net138
*2103 net139
*2104 net14
*2105 net140
*2106 net141
*2107 net142
*2108 net143
*2109 net144
*2110 net145
*2111 net146
*2112 net147
*2113 net148
*2114 net149
*2115 net15
*2116 net150
*2117 net151
*2118 net152
*2119 net153
*2120 net154
*2121 net155
*2122 net156
*2123 net157
*2124 net158
*2125 net159
*2126 net16
*2127 net160
*2128 net161
*2129 net162
*2130 net163
*2131 net164
*2132 net165
*2133 net166
*2134 net167
*2135 net168
*2136 net169
*2137 net17
*2138 net170
*2139 net171
*2140 net172
*2141 net173
*2142 net174
*2143 net175
*2144 net176
*2145 net177
*2146 net178
*2147 net179
*2148 net18
*2149 net180
*2150 net181
*2151 net182
*2152 net183
*2153 net184
*2154 net185
*2155 net186
*2156 net187
*2157 net188
*2158 net189
*2159 net19
*2160 net190
*2161 net191
*2162 net192
*2163 net193
*2164 net194
*2165 net195
*2166 net196
*2167 net197
*2168 net198
*2169 net199
*2170 net2
*2171 net20
*2172 net200
*2173 net201
*2174 net202
*2175 net203
*2176 net204
*2177 net205
*2178 net206
*2179 net207
*2180 net208
*2181 net209
*2182 net21
*2183 net210
*2184 net211
*2185 net212
*2186 net213
*2187 net214
*2188 net215
*2189 net216
*2190 net217
*2191 net218
*2192 net219
*2193 net22
*2194 net220
*2195 net221
*2196 net222
*2197 net223
*2198 net224
*2199 net225
*2200 net226
*2201 net227
*2202 net228
*2203 net229
*2204 net23
*2205 net230
*2206 net231
*2207 net232
*2208 net233
*2209 net234
*2210 net235
*2211 net236
*2212 net237
*2213 net238
*2214 net239
*2215 net24
*2216 net240
*2217 net241
*2218 net242
*2219 net243
*2220 net244
*2221 net245
*2222 net246
*2223 net247
*2224 net248
*2225 net249
*2226 net25
*2227 net250
*2228 net251
*2229 net252
*2230 net253
*2231 net254
*2232 net255
*2233 net256
*2234 net257
*2235 net258
*2236 net259
*2237 net26
*2238 net260
*2239 net261
*2240 net262
*2241 net263
*2242 net264
*2243 net265
*2244 net266
*2245 net267
*2246 net268
*2247 net269
*2248 net27
*2249 net270
*2250 net271
*2251 net272
*2252 net273
*2253 net274
*2254 net275
*2255 net276
*2256 net277
*2257 net278
*2258 net28
*2259 net29
*2260 net3
*2261 net30
*2262 net31
*2263 net32
*2264 net33
*2265 net34
*2266 net35
*2267 net36
*2268 net37
*2269 net38
*2270 net39
*2271 net4
*2272 net40
*2273 net41
*2274 net42
*2275 net43
*2276 net44
*2277 net45
*2278 net46
*2279 net47
*2280 net48
*2281 net49
*2282 net5
*2283 net50
*2284 net51
*2285 net52
*2286 net53
*2287 net54
*2288 net55
*2289 net56
*2290 net57
*2291 net58
*2292 net59
*2293 net6
*2294 net60
*2295 net61
*2296 net62
*2297 net63
*2298 net64
*2299 net65
*2300 net66
*2301 net67
*2302 net68
*2303 net69
*2304 net7
*2305 net70
*2306 net71
*2307 net72
*2308 net73
*2309 net74
*2310 net75
*2311 net76
*2312 net77
*2313 net78
*2314 net79
*2315 net8
*2316 net80
*2317 net81
*2318 net82
*2319 net83
*2320 net84
*2321 net85
*2322 net86
*2323 net87
*2324 net88
*2325 net89
*2326 net9
*2327 net90
*2328 net91
*2329 net92
*2330 net93
*2331 net94
*2332 net95
*2333 net96
*2334 net97
*2335 net98
*2336 net99
*2337 vgatest\.bitmap\.res\[0\]
*2338 vgatest\.bitmap\.res\[1\]
*2339 vgatest\.bitmap\.res\[2\]
*2340 vgatest\.bitmap\.res\[3\]
*2341 vgatest\.bitmapColAddr\[10\]
*2342 vgatest\.bitmapColAddr\[11\]
*2343 vgatest\.bitmapColAddr\[12\]
*2344 vgatest\.bitmapColAddr\[13\]
*2345 vgatest\.bitmapColAddr\[14\]
*2346 vgatest\.bitmapColAddr\[2\]
*2347 vgatest\.bitmapColAddr\[3\]
*2348 vgatest\.bitmapColAddr\[4\]
*2349 vgatest\.bitmapColAddr\[5\]
*2350 vgatest\.bitmapColAddr\[6\]